##TITLE=AK nmr
Name schenk
Code 2-Brombutan
CAS: 78-76-2
ca. 19 mg
c13.tci CDCl3 {C:\Bruker\av3-600\av600} nmrsu 9
##JCAMPDX= 6.0         $$ Bruker NMR JCAMP-DX V2.0
##DATA TYPE= NMR SPECTRUM
##DATA CLASS= NTUPLES
##ORIGIN= Bruker BioSpin GmbH
##OWNER= nmrsu
##LONG DATE= 2016/02/27 02:39:59+0000
$$ 1.115 TopSpin 4.1.0
$$ 2021-01-22 17:53:11.879 +0100  Homeoffice@CIERVO
$$ Compression mode = diff/dup
##.OBSERVE FREQUENCY= 150.91940830899
##.OBSERVE NUCLEUS= ^13C
##.ACQUISITION MODE= SIMULTANEOUS (DQD)
##.ACQUISITION SCHEME= undefined
##.AVERAGES= 256
##.DIGITISER RES= 21
##SPECTROMETER/DATA SYSTEM= spect
##.PULSE SEQUENCE= zgpg30
##.SOLVENT NAME= CDCl3
##.SHIFT REFERENCE= INTERNAL, CDCl3, 1, 239.4293
##AUDIT TRAIL= $$ (NUMBER, WHEN, WHO, WHERE, PROCESS, VERSION, WHAT)
$$ ##TITLE= Audit trail, TopSpin 4.1.0
$$ ##JCAMPDX= 5.01
$$ ##ORIGIN= Bruker BioSpin GmbH
$$ ##OWNER= Homeoffice
$$ $$ D:/Users/Homeoffice/Seafile/chemikalienlager/2-brombutan_78-76-2/2/pdata/1/auditp.txt
$$ ##AUDIT TRAIL=  $$ (NUMBER, WHEN, WHO, WHERE, PROCESS, VERSION, WHAT)
(   1,<2016-02-27 03:39:59.286 +0100>,<nmrsu>,<av3-600>,<go4>,<TopSpin 3.5.4>,
      <created by zg
	started at 2016-02-27 03:32:34.279 +0100,
	POWCHK enabled, PULCHK disabled,
       configuration hash MD5:
       0E 6B 10 07 3B 74 35 87 64 B9 C0 87 16 B6 69 62
       data hash MD5: 64K
       3C DA 43 4D D0 90 4E ED 39 94 34 8C 7A 30 10 1D>)
(   2,<2016-02-27 03:39:59.348 +0100>,<nmrsu>,<av3-600>,<audit>,<TopSpin 3.5.4>,
      <user comment:
       ICON-NMR User ID: nmrsu
       data hash MD5: 64K
       3C DA 43 4D D0 90 4E ED 39 94 34 8C 7A 30 10 1D>)
(   3,<2021-01-22 17:52:52.143 +0100>,<Homeoffice>,<CIERVO>,<proc1d>,<TopSpin 4.1.0>,
      <CAT service failure
       Start of raw data processing
       em LB = 1 SI = 32K 
       data hash MD5: 32K
       8F 4B 03 D7 BC 06 EE 60 57 1C 81 F8 65 BD 12 08>)
(   4,<2021-01-22 17:52:52.252 +0100>,<Homeoffice>,<CIERVO>,<proc1d>,<TopSpin 4.1.0>,
      <CAT service failure
       ft FT_mod = 6 PKNL = 1 SI = 32K 
       data hash MD5: 32K
       CE 24 01 9E E8 44 DA 6B 49 75 12 41 C5 01 35 47>)
(   5,<2021-01-22 17:52:52.460 +0100>,<Homeoffice>,<CIERVO>,<proc1d>,<TopSpin 4.1.0>,
      <CAT service failure
       apk 
       data hash MD5: 32K
       79 66 24 04 A0 1C C1 6D 31 76 E6 CF 4E 99 8B BB>)
(   6,<2021-01-22 17:52:52.564 +0100>,<Homeoffice>,<CIERVO>,<proc1d>,<TopSpin 4.1.0>,
      <CAT service failure
       abs n ABSG = 5 
       data hash MD5: 32K
       1C 15 A4 50 1C 38 CE B5 EB AF 27 D9 15 9E 76 7D>)
(   7,<2021-01-22 17:52:54.090 +0100>,<Homeoffice>,<CIERVO>,<proc1d>,<TopSpin 4.1.0>,
      <CAT service failure
       Start of raw data processing
       ef LB = 1 FT_mod = 6 PKNL = 1 SI = 32K 
       data hash MD5: 32K
       65 82 6E 2A 2D 9D A2 AA 85 68 B7 56 4A FB CA 6D>)
(   8,<2021-01-22 17:52:55.551 +0100>,<Homeoffice>,<CIERVO>,<proc1d>,<TopSpin 4.1.0>,
      <CAT service failure
       apk 
       data hash MD5: 32K
       CB D6 27 3D 8B F0 37 B2 95 AD B0 5F 10 9F 05 A4>)
(   9,<2021-01-22 17:52:56.782 +0100>,<Homeoffice>,<CIERVO>,<proc1d>,<TopSpin 4.1.0>,
      <CAT service failure
       apks 
       data hash MD5: 32K
       B7 C4 B5 E0 96 42 A1 41 C6 B8 84 77 D4 03 4F E3>)
(  10,<2021-01-22 17:52:58.654 +0100>,<Homeoffice>,<CIERVO>,<apkm>,<TopSpin 4.1.0>,
      <CAT service failure
       apkm
       data hash MD5: 32K
       FC AC A1 45 0F C7 70 69 25 F9 3D B9 68 5A 28 AE>)
(  11,<2021-01-22 17:52:59.970 +0100>,<Homeoffice>,<CIERVO>,<proc1d>,<TopSpin 4.1.0>,
      <CAT service failure
       apks 
       data hash MD5: 32K
       BD 2F 07 6A 84 3C 75 ED 7B 82 5F D0 02 50 02 B1>)
(  12,<2021-01-22 17:53:01.011 +0100>,<Homeoffice>,<CIERVO>,<proc1d>,<TopSpin 4.1.0>,
      <CAT service failure
       abs n ABSG = 5 
       data hash MD5: 32K
       CA CD 3A 0F 89 A3 66 D4 0C 88 FA DD ED BF 58 C3>)
$$ ##END=
$$ 
$$ $$ hash MD5
$$ $$ 85 A4 DE 7D 9B 8A FC 79 28 3C 03 F3 3F CE E4 CE
##$RELAX= 
##$BRUKER FILE EXP=cpdprg2
$$ 1 pcpd*3:180
$$   pcpd*4:0
$$   pcpd*2:180
$$   pcpd*3:0
$$   pcpd  :180
$$   pcpd*2:0
$$   pcpd*4:180
$$   pcpd*2:0
$$   pcpd*3:180
$$ 2 pcpd*3:0
$$   pcpd*4:180
$$   pcpd*2:0
$$   pcpd*3:180
$$   pcpd  :0
$$   pcpd*2:180
$$   pcpd*4:0
$$   pcpd*2:180
$$   pcpd*3:0
$$   lo to 2 times 2
$$ 3 pcpd*3:180
$$   pcpd*4:0
$$   pcpd*2:180
$$   pcpd*3:0
$$   pcpd  :180
$$   pcpd*2:0
$$   pcpd*4:180
$$   pcpd*2:0
$$   pcpd*3:180
$$   jump to 1
##$RELAX= 
##$BRUKER FILE EXP=format.temp
$$ EDIT_PAR COMMAND FILE
$$ 
$$ DI_MODE         LONG
$$ ED_ENTRY        ACQU
$$ ORDER           FILE
$$ 
$$ 
$$ HEADER		"F2 - Acquisition Parameters"
$$ T_NAME		Date_
$$ 		TYPE	R64
$$ 		CLASS	ACQU
$$ 		SUBRANGE 0.0 50000000
$$ 		REL	"Date_=itodate(DATE)"
$$ 		INV_REL	"DATE=datetoi(Date_,DATE)"
$$ 		FORMAT	"%14.0f"
$$ 		TEXT	" "
$$ END
$$ T_NAME		Time
$$ 		TYPE	R32
$$ 		CLASS	ACQU
$$ 		SUBRANGE 0.0 1000000
$$ 		REL	"Time=itotime(DATE)"
$$ 		INV_REL	"DATE=timetoi(Time,DATE)"
$$ 		FORMAT	"%14.2f h"
$$ 		TEXT	" "
$$ END
$$ NAME		INSTRUM
$$ 		TEXT	" "
$$ END
$$ NAME		PROBHD
$$ 		FORMAT	"%14.14s"
$$ 		TEXT	" "
$$ END
$$ NAME		PULPROG
$$ 		TEXT	" "
$$ END
$$ NAME		TD
$$ 		TEXT	" "
$$ END
$$ NAME		SOLVENT
$$ 		TEXT	" "
$$ END
$$ NAME		NS
$$ 		TEXT	" "
$$ END
$$ NAME		DS
$$ 		TEXT	" "
$$ END
$$ T_NAME		SWH
$$ 		TYPE	R32
$$ 		CLASS	ACQU
$$ 		SUBRANGE 0.0 1e8
$$ 		REL	"SWH=SW*SFO1"
$$ 		INV_REL "SW=SWH/SFO1"
$$ 		UNIT	"Hz"
$$ 		FORMAT	"%14.3f Hz"
$$ 		TEXT	" "
$$ END
$$ T_NAME          FIDRES
$$                 TYPE    R32
$$                 CLASS   ACQU
$$                 SUBRANGE 0.0 100000
$$                 REL     "FIDRES=2*SW*SFO1/TD"
$$                 INV_REL "TD = nextpow(2*SW*SFO1/FIDRES)"
$$ 		UNIT	"Hz"
$$ 		FORMAT	"%14.6f Hz"
$$ 		TEXT	" "
$$ END
$$ T_NAME          AQ
$$ 		TYPE	R32
$$ 		CLASS	ACQU
$$ 		SUBRANGE 0.0 1000
$$ 		REL	"AQ=aqcalc(SW,SFO1,TD,DIGTYP)"
$$ 		INV_REL	"TD=tdcalc(SW,SFO1,1.0e6*AQ,DIGTYP)"
$$ 		UNIT	"sec"
$$ 		FORMAT	"%14.7f sec"
$$ 		TEXT	" "
$$ END
$$ NAME		RG
$$ 		TEXT	" "
$$ END
$$ T_NAME          DW
$$ 		TYPE	R32
$$ 		CLASS	ACQU
$$ 		SUBRANGE 0.0 1000000
$$ 		REL	"DW=1/(2*SW*SFO1)"
$$ 		INV_REL	"SW=1000000/(2*(0.005+DW)*SFO1)"
$$ 		UNIT	"usec"
$$ 		FORMAT	"%14.3lf usec"
$$ 		TEXT	" "
$$ END
$$ NAME		DE
$$ 		FORMAT	"%14.2f usec"
$$ 		TEXT	" "
$$ END
$$ NAME		TE
$$ 		FORMAT	"%14.1f K"
$$ 		TEXT	" "
$$ END
$$ T_NAME		D1
$$ 		TYPE	R32
$$ 		CLASS	ACQU
$$ 		SUBRANGE 0.0 1e38
$$ 		REL	"D1=D[1]"
$$ 		INV_REL	"D[1]=D1"
$$ 		UNIT	"sec"
$$ 		FORMAT	"%14.8f sec"
$$ 		TEXT	" "
$$ END
$$ T_NAME		D11
$$ 		TYPE	R32
$$ 		CLASS	ACQU
$$ 		SUBRANGE 0.0 1e38
$$ 		REL	"D11=D[11]"
$$ 		INV_REL	"D[11]=D11"
$$ 		UNIT	"sec"
$$ 		FORMAT	"%14.8f sec"
$$ 		TEXT	" "
$$ END
$$ NAME		TD0
$$ 		TEXT	" "
$$ END
$$ NAME		SFO1
$$ 		FORMAT	"%14.7f MHz"
$$ 		TEXT	" "
$$ END
$$ NAME		NUC1
$$ 		NONEDIT
$$ 		TEXT	" "
$$ END
$$ T_NAME		P1
$$ 		TYPE	R32
$$ 		CLASS	ACQU
$$ 		SUBRANGE 0.0 1.0e10
$$ 		REL	"P1=P[1]"
$$ 		INV_REL	"P[1]=P1"
$$ 		UNIT	"usec"
$$ 		FORMAT	"%14.2f usec"
$$ 		TEXT	" "
$$ END
$$ T_NAME		PLW1
$$ 		TYPE	R32
$$ 		CLASS	ACQU
$$ 		REL	"PLW1=PLW[1]"
$$ 		INV_REL	"PLW[1]=PLW1"
$$ 		UNIT	"W"
$$ 		FORMAT	"%14.8f W"
$$ 		TEXT	"power PLW1 "
$$ END
$$ NAME		SFO2
$$ 		FORMAT	"%14.7f MHz"
$$ 		TEXT	" "
$$ END
$$ NAME		NUC2
$$ 		NONEDIT
$$ 		TEXT	" "
$$ END
$$ NAME		CPDPRG[2]
$$ 		TEXT	" "
$$ END
$$ T_NAME		PCPD2
$$ 		TYPE	R32
$$ 		CLASS	ACQU
$$ 		SUBRANGE 0 1e38
$$ 		REL	"PCPD2=PCPD[2]"
$$ 		INV_REL	"PCPD[2]=PCPD2"
$$ 		UNIT	"usec"
$$ 		FORMAT	"%14.2f usec"
$$ 		TEXT	" "
$$ END
$$ T_NAME		PLW2
$$ 		TYPE	R32
$$ 		CLASS	ACQU
$$ 		REL	"PLW2=PLW[2]"
$$ 		INV_REL	"PLW[2]=PLW2"
$$ 		UNIT	"W"
$$ 		FORMAT	"%14.8f W"
$$ 		TEXT	"power PLW2 "
$$ END
$$ T_NAME		PLW12
$$ 		TYPE	R32
$$ 		CLASS	ACQU
$$ 		REL	"PLW12=PLW[12]"
$$ 		INV_REL	"PLW[12]=PLW12"
$$ 		UNIT	"W"
$$ 		FORMAT	"%14.8f W"
$$ 		TEXT	"power PLW12 "
$$ END
$$ T_NAME		PLW13
$$ 		TYPE	R32
$$ 		CLASS	ACQU
$$ 		REL	"PLW13=PLW[13]"
$$ 		INV_REL	"PLW[13]=PLW13"
$$ 		UNIT	"W"
$$ 		FORMAT	"%14.8f W"
$$ 		TEXT	"power PLW13 "
$$ END
##$RELAX= 
##$BRUKER FILE EXP=fq1list
$$ O 600.132401
$$ -10000000
$$ -9929688
$$ -9859375
$$ -9789063
$$ -9718750
$$ -9648438
$$ -9578125
$$ -9507813
$$ -9437500
$$ -9367188
$$ -9296875
$$ -9226563
$$ -9156250
$$ -9085938
$$ -9015625
$$ -8945313
$$ -8875000
$$ -8804688
$$ -8734375
$$ -8664063
$$ -8593750
$$ -8523438
$$ -8453125
$$ -8382813
$$ -8312500
$$ -8242188
$$ -8171875
$$ -8101563
$$ -8031250
$$ -7960938
$$ -7890625
$$ -7820313
$$ -7750000
$$ -7679688
$$ -7609375
$$ -7539063
$$ -7468750
$$ -7398438
$$ -7328125
$$ -7257813
$$ -7187500
$$ -7117188
$$ -7046875
$$ -6976563
$$ -6906250
$$ -6835938
$$ -6765625
$$ -6695313
$$ -6625000
$$ -6554688
$$ -6484375
$$ -6414063
$$ -6343750
$$ -6273438
$$ -6203125
$$ -6132813
$$ -6062500
$$ -5992188
$$ -5921875
$$ -5851563
$$ -5781250
$$ -5710938
$$ -5640625
$$ -5570313
$$ -5500000
$$ -5429688
$$ -5359375
$$ -5289063
$$ -5218750
$$ -5148438
$$ -5078125
$$ -5007813
$$ -4937500
$$ -4867188
$$ -4796875
$$ -4726563
$$ -4656250
$$ -4585938
$$ -4515625
$$ -4445313
$$ -4375000
$$ -4304688
$$ -4234375
$$ -4164063
$$ -4093750
$$ -4023438
$$ -3953125
$$ -3882813
$$ -3812500
$$ -3742188
$$ -3671875
$$ -3601563
$$ -3531250
$$ -3460938
$$ -3390625
$$ -3320313
$$ -3250000
$$ -3179688
$$ -3109375
$$ -3039063
$$ -2968750
$$ -2898438
$$ -2828125
$$ -2757813
$$ -2687500
$$ -2617188
$$ -2546875
$$ -2476563
$$ -2406250
$$ -2335938
$$ -2265625
$$ -2195313
$$ -2125000
$$ -2054688
$$ -1984375
$$ -1914063
$$ -1843750
$$ -1773438
$$ -1703125
$$ -1632813
$$ -1562500
$$ -1492188
$$ -1421875
$$ -1351563
$$ -1281250
$$ -1210938
$$ -1140625
$$ -1070313
$$ -1000000
$$  -992157
$$  -984314
$$  -976471
$$  -968627
$$  -960784
$$  -952941
$$  -945098
$$  -937255
$$  -929412
$$  -921569
$$  -913725
$$  -905882
$$  -898039
$$  -890196
$$  -882353
$$  -874510
$$  -866667
$$  -858824
$$  -850980
$$  -843137
$$  -835294
$$  -827451
$$  -819608
$$  -811765
$$  -803922
$$  -796078
$$  -788235
$$  -780392
$$  -772549
$$  -764706
$$  -756863
$$  -749020
$$  -741176
$$  -733333
$$  -725490
$$  -717647
$$  -709804
$$  -701961
$$  -694118
$$  -686275
$$  -678431
$$  -670588
$$  -662745
$$  -654902
$$  -647059
$$  -639216
$$  -631373
$$  -623529
$$  -615686
$$  -607843
$$  -600000
$$  -592157
$$  -584314
$$  -576471
$$  -568627
$$  -560784
$$  -552941
$$  -545098
$$  -537255
$$  -529412
$$  -521569
$$  -513725
$$  -505882
$$  -498039
$$  -490196
$$  -482353
$$  -474510
$$  -466667
$$  -458824
$$  -450980
$$  -443137
$$  -435294
$$  -427451
$$  -419608
$$  -411765
$$  -403922
$$  -396078
$$  -388235
$$  -380392
$$  -372549
$$  -364706
$$  -356863
$$  -349020
$$  -341176
$$  -333333
$$  -325490
$$  -317647
$$  -309804
$$  -301961
$$  -294118
$$  -286275
$$  -278431
$$  -270588
$$  -262745
$$  -254902
$$  -247059
$$  -239216
$$  -231373
$$  -223529
$$  -215686
$$  -207843
$$  -200000
$$  -192157
$$  -184314
$$  -176471
$$  -168627
$$  -160784
$$  -152941
$$  -145098
$$  -137255
$$  -129412
$$  -121569
$$  -113725
$$  -105882
$$   -98039
$$   -90196
$$   -82353
$$   -74510
$$   -66667
$$   -58824
$$   -50980
$$   -43137
$$   -35294
$$   -27451
$$   -19608
$$   -11765
$$    -3922
$$     3922
$$    11765
$$    19608
$$    27451
$$    35294
$$    43137
$$    50980
$$    58824
$$    66667
$$    74510
$$    82353
$$    90196
$$    98039
$$   105882
$$   113725
$$   121569
$$   129412
$$   137255
$$   145098
$$   152941
$$   160784
$$   168627
$$   176471
$$   184314
$$   192157
$$   200000
$$   207843
$$   215686
$$   223529
$$   231373
$$   239216
$$   247059
$$   254902
$$   262745
$$   270588
$$   278431
$$   286275
$$   294118
$$   301961
$$   309804
$$   317647
$$   325490
$$   333333
$$   341176
$$   349020
$$   356863
$$   364706
$$   372549
$$   380392
$$   388235
$$   396078
$$   403922
$$   411765
$$   419608
$$   427451
$$   435294
$$   443137
$$   450980
$$   458824
$$   466667
$$   474510
$$   482353
$$   490196
$$   498039
$$   505882
$$   513725
$$   521569
$$   529412
$$   537255
$$   545098
$$   552941
$$   560784
$$   568627
$$   576471
$$   584314
$$   592157
$$   600000
$$   607843
$$   615686
$$   623529
$$   631373
$$   639216
$$   647059
$$   654902
$$   662745
$$   670588
$$   678431
$$   686275
$$   694118
$$   701961
$$   709804
$$   717647
$$   725490
$$   733333
$$   741176
$$   749020
$$   756863
$$   764706
$$   772549
$$   780392
$$   788235
$$   796078
$$   803922
$$   811765
$$   819608
$$   827451
$$   835294
$$   843137
$$   850980
$$   858824
$$   866667
$$   874510
$$   882353
$$   890196
$$   898039
$$   905882
$$   913725
$$   921569
$$   929412
$$   937255
$$   945098
$$   952941
$$   960784
$$   968627
$$   976471
$$   984314
$$   992157
$$  1000000
$$  1070312
$$  1140625
$$  1210937
$$  1281250
$$  1351562
$$  1421875
$$  1492187
$$  1562500
$$  1632812
$$  1703125
$$  1773437
$$  1843750
$$  1914062
$$  1984375
$$  2054687
$$  2125000
$$  2195312
$$  2265625
$$  2335937
$$  2406250
$$  2476562
$$  2546875
$$  2617187
$$  2687500
$$  2757812
$$  2828125
$$  2898437
$$  2968750
$$  3039062
$$  3109375
$$  3179687
$$  3250000
$$  3320312
$$  3390625
$$  3460937
$$  3531250
$$  3601562
$$  3671875
$$  3742187
$$  3812500
$$  3882812
$$  3953125
$$  4023437
$$  4093750
$$  4164062
$$  4234375
$$  4304687
$$  4375000
$$  4445312
$$  4515625
$$  4585937
$$  4656250
$$  4726562
$$  4796875
$$  4867187
$$  4937500
$$  5007812
$$  5078125
$$  5148437
$$  5218750
$$  5289062
$$  5359375
$$  5429687
$$  5500000
$$  5570312
$$  5640625
$$  5710937
$$  5781250
$$  5851562
$$  5921875
$$  5992187
$$  6062500
$$  6132812
$$  6203125
$$  6273437
$$  6343750
$$  6414062
$$  6484375
$$  6554687
$$  6625000
$$  6695312
$$  6765625
$$  6835937
$$  6906250
$$  6976562
$$  7046875
$$  7117187
$$  7187500
$$  7257812
$$  7328125
$$  7398437
$$  7468750
$$  7539062
$$  7609375
$$  7679687
$$  7750000
$$  7820312
$$  7890625
$$  7960937
$$  8031250
$$  8101562
$$  8171875
$$  8242187
$$  8312500
$$  8382812
$$  8453125
$$  8523437
$$  8593750
$$  8664062
$$  8734375
$$  8804687
$$  8875000
$$  8945312
$$  9015625
$$  9085937
$$  9156250
$$  9226562
$$  9296875
$$  9367187
$$  9437500
$$  9507812
$$  9578125
$$  9648437
$$  9718750
$$  9789062
$$  9859375
$$  9929687
$$ 10000000
##$RELAX= 
##$BRUKER FILE EXP=scon2
$$ ##TITLE= Parameter file, TopSpin 3.5 pl 4
$$ ##JCAMPDX= 5.0
$$ ##DATATYPE= Parameter Values
$$ ##NPOINTS= 1	$$ modification sequence number
$$ ##ORIGIN= Bruker BioSpin GmbH
$$ ##OWNER= nmrsu
$$ $$ 2016-02-27 03:32:34.232 +0100  nmrsu@av3-600
$$ $$ C:/Bruker/av3-600/av600/AV600-1602E9/2/scon2
$$ $$ process C:\Bruker\TopSpin3.5pl4\prog\mod\go4.exe
$$ ##$BLKTR= (0..19)
$$ 3 3 3 3 3 3 3 3 3 3 3 3 3 3 3 3 3 3 3 3
$$ ##$DE1= 4.5
$$ ##$DEADC= 0.5
$$ ##$DEPA= 4.5
$$ ##$DERX= 1.5
$$ ##$FILCOR= 0
$$ ##$GRADCHAN= 0
$$ ##$GRADPRE= (0..1)
$$ 10 10
$$ ##$HD_BLKTR= (0..19)
$$ 1 1 1 1 1 1 1 1 1 1 1 1 1 1 1 1 1 1 1 1
$$ ##$HD_DE1= 5
$$ ##$HD_DEADC= 0
$$ ##$HD_DEPA= 2.5
$$ ##$HD_DERX= 0
$$ ##END=
##$RELAX= 
##$BRUKER FILE EXP=orig
$$ AK nmr
$$ Name schenk
$$ Code 2-Brombutan
##$RELAX= 
##$BRUKER FILE EXP=prosol_History
##$RELAX= 
##$BRUKER FILE EXP=pulseprogram
$$ # 1 "C:/Bruker/TopSpin3.5pl4/exp/stan/nmr/lists/pp/zgpg30"
$$ ;zgpg30
$$ ;avance-version (12/01/11)
$$ ;1D sequence with power-gated decoupling
$$ ;using 30 degree flip angle
$$ ;
$$ ;$CLASS=HighRes
$$ ;$DIM=1D
$$ ;$TYPE=
$$ ;$SUBTYPE=
$$ ;$COMMENT=
$$ ;$RECOMMEND=y
$$ 
$$ 
$$ # 1 "C:/Bruker/TopSpin3.5pl4/exp/stan/nmr/lists/pp/Avance.incl" 1
$$ ;Avance3.incl
$$ ;   for AV III
$$ ;
$$ ;avance-version (13/06/17)
$$ ;
$$ ;$CLASS=HighRes Incl
$$ ;$COMMENT=
$$ # 169 "C:/Bruker/TopSpin3.5pl4/exp/stan/nmr/lists/pp/Avance.incl"
$$ ;$Id: Avance3.incl,v 1.10.2.2 2013/08/30 09:43:33 ber Exp $
$$ # 14 "C:/Bruker/TopSpin3.5pl4/exp/stan/nmr/lists/pp/zgpg30" 2
$$ 
$$ # 1 "C:/Bruker/TopSpin3.5pl4/exp/stan/nmr/lists/pp/Delay.incl" 1
$$ ;Delay.incl  -  include file for commonly used delays
$$ ;
$$ ;version (13/08/07)
$$ ;
$$ ;$CLASS=HighRes Incl
$$ ;$COMMENT=
$$ 
$$ # 9 "C:/Bruker/TopSpin3.5pl4/exp/stan/nmr/lists/pp/Delay.incl"
$$ ;general delays
$$ 
$$ define delay DELTA
$$ define delay DELTA1
$$ define delay DELTA2
$$ define delay DELTA3
$$ define delay DELTA4
$$ define delay DELTA5
$$ define delay DELTA6
$$ define delay DELTA7
$$ define delay DELTA8
$$ define delay DELTA9
$$ define delay DELTA10
$$ define delay DELTA11
$$ define delay DELTA12
$$ define delay DELTA13
$$ define delay DELTA14
$$ define delay DELTA15
$$ define delay DELTA16
$$ 
$$ define delay TAU
$$ define delay TAU1
$$ define delay TAU2
$$ define delay TAU3
$$ define delay TAU4
$$ define delay TAU5
$$ define delay TAU6
$$ define delay TAU7
$$ define delay TAU8
$$ define delay TAU9
$$ # 40 "C:/Bruker/TopSpin3.5pl4/exp/stan/nmr/lists/pp/Delay.incl"
$$ define delay INCR1
$$ define delay INCR2
$$ define delay INCR3
$$ define delay INCR4
$$ define delay INCR5
$$ define delay INCR6
$$ 
$$ 
$$ ;delays for centering pulses
$$ # 50 "C:/Bruker/TopSpin3.5pl4/exp/stan/nmr/lists/pp/Delay.incl"
$$ define delay CEN_HN1
$$ define delay CEN_HN2
$$ define delay CEN_HN3
$$ define delay CEN_HC1
$$ define delay CEN_HC2
$$ define delay CEN_HC3
$$ define delay CEN_HC4
$$ define delay CEN_HP1
$$ define delay CEN_HP2
$$ define delay CEN_CN1
$$ define delay CEN_CN2
$$ define delay CEN_CN3
$$ define delay CEN_CN4
$$ define delay CEN_CP1
$$ define delay CEN_CP2
$$ 
$$ 
$$ ;loop counters
$$ # 69 "C:/Bruker/TopSpin3.5pl4/exp/stan/nmr/lists/pp/Delay.incl"
$$ define loopcounter COUNTER
$$ define loopcounter SCALEF
$$ define loopcounter FACTOR1
$$ define loopcounter FACTOR2
$$ define loopcounter FACTOR3
$$ define loopcounter FACTOR4
$$ define loopcounter FACTOR5
$$ define loopcounter FACTOR6
$$ 
$$ 
$$ # 80 "C:/Bruker/TopSpin3.5pl4/exp/stan/nmr/lists/pp/Delay.incl"
$$ ;$Id: Delay.incl,v 1.14.2.1 2013/08/30 09:43:33 ber Exp $
$$ # 15 "C:/Bruker/TopSpin3.5pl4/exp/stan/nmr/lists/pp/zgpg30" 2
$$ 
$$ 
$$ # 18 "C:/Bruker/TopSpin3.5pl4/exp/stan/nmr/lists/pp/zgpg30"
$$ "d11=30m"
$$ 
$$ 
$$ "DELTA=d1-100m"
$$ # 24 "C:/Bruker/TopSpin3.5pl4/exp/stan/nmr/lists/pp/zgpg30"
$$ "acqt0=-p1*0.66/3.1416"
$$ 
$$ 
$$ # 1 "mc_line 27 file C:/Bruker/TopSpin3.5pl4/exp/stan/nmr/lists/pp/zgpg30 exp. def. part of mc cmd. before ze"
$$ ; dimension 1D; AQ_mode 
$$ define delay MCWRK
$$ define delay MCREST
$$ "MCREST = 30m - 30m"
$$ "MCWRK = 0.333333*30m"
$$ 
$$     dccorr
$$ # 27 "C:/Bruker/TopSpin3.5pl4/exp/stan/nmr/lists/pp/zgpg30"
$$ 1 ze
$$ # 1 "mc_line 27 file C:/Bruker/TopSpin3.5pl4/exp/stan/nmr/lists/pp/zgpg30 exp. def. of mc cmd. after ze"
$$ # 28 "C:/Bruker/TopSpin3.5pl4/exp/stan/nmr/lists/pp/zgpg30"
$$   d11 pl12:f2
$$ # 1 "mc_line 29 file C:/Bruker/TopSpin3.5pl4/exp/stan/nmr/lists/pp/zgpg30 exp. start label for mc cmd."
$$ 2 MCWRK  * 2 do:f2
$$ LBLF0, MCWRK 
$$   MCREST
$$ # 30 "C:/Bruker/TopSpin3.5pl4/exp/stan/nmr/lists/pp/zgpg30"
$$   10u pl13:f2
$$   d11 cpd2:f2
$$   DELTA
$$   4u do:f2
$$   10u pl12:f2
$$   100m cpd2:f2
$$   p1*0.33 ph1
$$   go=2 ph31
$$ # 1 "mc_line 38 file C:/Bruker/TopSpin3.5pl4/exp/stan/nmr/lists/pp/zgpg30 exp. mc cmd. in line"
$$   MCWRK do:f2 pl13:f2 wr #0
$$   MCWRK zd
$$   lo to LBLF0 times td0
$$ 
$$ # 39 "C:/Bruker/TopSpin3.5pl4/exp/stan/nmr/lists/pp/zgpg30"
$$ exit
$$ # 42 "C:/Bruker/TopSpin3.5pl4/exp/stan/nmr/lists/pp/zgpg30"
$$ ph1=0 2 2 0 1 3 3 1
$$ ph31=0 2 2 0 1 3 3 1
$$ 
$$ 
$$ ;pl1 : f1 channel - power level for pulse (default)
$$ ;pl12: f2 channel - power level for CPD/BB decoupling
$$ ;pl13: f2 channel - power level for second CPD/BB decoupling
$$ ;p1 : f1 channel -  90 degree high power pulse
$$ ;d1 : relaxation delay; 1-5 * T1
$$ ;d11: delay for disk I/O                             [30 msec]
$$ ;ns: 1 * n, total number of scans: NS * TD0
$$ ;cpd2: decoupling according to sequence defined by cpdprg2
$$ ;pcpd2: f2 channel - 90 degree pulse for decoupling sequence
$$ # 58 "C:/Bruker/TopSpin3.5pl4/exp/stan/nmr/lists/pp/zgpg30"
$$ ;$Id: zgpg30,v 1.13 2012/01/31 17:49:32 ber Exp $
##$RELAX= 
##$BRUKER FILE EXP=shimvalues
$$ # Sat Feb 27 03:39:59 2016
$$ #$$PROBEIDENTIFIER=Z75812_0080
$$ #$$PROBENAME=CP TCI 600S3 H-C/N-D-05 Z
$$ #$$SHIMID=292722
$$ #
$$ # Active Shim Gradients
$$ #
$$ Z           		-1622           
$$ Z2          		-842            
$$ Z3          		768             
$$ Z4          		-3783           
$$ Z5          		793             
$$ X           		-178            
$$ XZ          		5074            
$$ XZ2         		4137            
$$ (X2-Y2)     		4765            
$$ XY          		2226            
$$ Y           		-1744           
$$ YZ          		2866            
$$ YZ2         		1589            
$$ (X2-Y2)Z2   		281             
$$ XZ4         		3174            
$$ XZ3         		-205            
$$ Z6          		-4400           
$$ (X2-Y2)Z    		2033            
$$ YZ4         		486             
$$ YZ3         		-1441           
$$ XYZ2        		-124            
$$ XYZ         		4494            
$$ X3Z         		0               
$$ X3          		3621            
$$ Y3Z         		0               
$$ Y3          		-2199           
$$ Z7          		-4006           
$$ Z8          		0               
$$ XZ5         		0               
$$ YZ5         		0               
$$ (X2-Y2)Z3   		1576            
$$ (X2-Y2)Z4   		0               
$$ (X2-Y2)Z5   		0               
$$ XYZ3        		227             
$$ XYZ4        		0               
$$ XYZ5        		0               
$$ #
$$ # Lock Parameter
$$ #
$$ FIELD		-5839.248
$$ LOCKPHASE		199.263 
$$ LOCKPOWER		-30.000 
$$ LOCKGAIN		113.001 
$$ LOCKDC		-70.000 
$$ LOCKSHIFT		7.240   
$$ LOOPGAIN		-12.000 
$$ LOOPTIME		0.400   
$$ LOOPFILTER		100.000 
$$ #
$$ IEEE64_VERSION_CODE 1
$$ #
$$ # Shim currents 
$$ #
$$ SHIM_SETTING [1 ]  -1191.61561635  
$$ SHIM_SETTING [2 ]  -451.23152816   
$$ SHIM_SETTING [3 ]  3705.94659042   
$$ SHIM_SETTING [4 ]  7063.18033856   
$$ SHIM_SETTING [5 ]  -702.11801577   
$$ SHIM_SETTING [6 ]  -3429.05301080  
$$ SHIM_SETTING [7 ]  -11567.11869024 
$$ SHIM_SETTING [8 ]  -5527.25061529  
$$ SHIM_SETTING [9 ]  -3415.58168962  
$$ SHIM_SETTING [10]  -2597.41466359  
$$ SHIM_SETTING [11]  0.00000000      
$$ SHIM_SETTING [12]  -2198.99400000  
$$ SHIM_SETTING [13]  -2198.99400000  
$$ SHIM_SETTING [14]  1755.96100000   
$$ SHIM_SETTING [15]  10795.22500000  
$$ SHIM_SETTING [16]  1016.79700000   
$$ SHIM_SETTING [17]  -3387.59600000  
$$ SHIM_SETTING [18]  -8657.75400000  
$$ SHIM_SETTING [19]  1856.06300000   
$$ SHIM_SETTING [20]  347.59100000    
$$ SHIM_SETTING [21]  6560.30400000   
$$ SHIM_SETTING [22]  166.16400000    
$$ SHIM_SETTING [23]  4995.04400000   
$$ SHIM_SETTING [24]  4122.59000000   
$$ SHIM_SETTING [25]  3821.19200000   
$$ SHIM_SETTING [26]  -239.90500000   
$$ SHIM_SETTING [27]  1755.96100000   
$$ SHIM_SETTING [28]  1872.17100000   
$$ SHIM_SETTING [29]  2134.45200000   
$$ SHIM_SETTING [30]  -328.56400000   
$$ SHIM_SETTING [31]  -441.50600000   
$$ SHIM_SETTING [32]  -1252.86100000  
$$ SHIM_SETTING [33]  5977.64700000   
$$ SHIM_SETTING [34]  -3346.36000000  
$$ SHIM_SETTING [35]  5341.04500000   
$$ SHIM_SETTING [36]  -707.82400000   
$$ SHIM_SETTING [37]  -423.13700000   
$$ SHIM_SETTING [38]  -1445.06200000  
$$ SHIM_SETTING [39]  -6069.28100000  
$$ SHIM_SETTING [40]  0.00000000      
##$RELAX= 
##$BRUKER FILE EXP=uxnmr.par
$$ ##TITLE= Parameter file, TopSpin 3.5 pl 4
$$ ##JCAMPDX= 5.0
$$ ##DATATYPE= Parameter Values
$$ ##NPOINTS= 339	$$ modification sequence number
$$ ##ORIGIN= Bruker BioSpin GmbH
$$ ##OWNER= nmrsu
$$ $$ 2016-01-28 18:44:03.487 +0100  nmrsu@av3-600
$$ $$ C:/Bruker/TopSpin3.5pl4/conf/instr/spect/uxnmr.par
$$ $$ process C:\Bruker\TopSpin3.5pl4\prog\mod\cfserverav3.exe
$$ ##$ACB= 0
$$ ##$ACBTAT= (0..23)
$$ 0 88 72 88 50 50 0 0 0 0 0 0 0 0 0 0 0 0 0 0 0 0 0 0
$$ ##$ACBTBA= (0..23)
$$ 0 0 0 0 0 0 0 0 0 0 0 0 0 0 0 0 0 0 0 0 0 0 0 0
$$ ##$ACBTBLK= (0..23)
$$ 0 35 34 33 0 1 0 0 0 0 0 0 0 0 0 0 0 0 0 0 0 0 0 0
$$ ##$ACBTCTL= (0..23)
$$ 0 6 6 6 6 6 0 0 0 0 0 0 0 0 0 0 0 0 0 0 0 0 0 0
$$ ##$ACBTDI= (0..23)
$$ 0 -1779670018 -1779670019 -1779670019 -1779670019 -1779670252 0 0 0 0 0
$$ 0 0 0 0 0 0 0 0 0 0 0 0 0
$$ ##$ACBTDM= (0..23)
$$ 0 10 25 10 10 10 0 0 0 0 0 0 0 0 0 0 0 0 0 0 0 0 0 0
$$ ##$ACBTFHI= (0..23)
$$ 0 365 600 365 92 93 0 0 0 0 0 0 0 0 0 0 0 0 0 0 0 0 0 0
$$ ##$ACBTFL= (0..23)
$$ 0 248 248 248 88 8 0 0 0 0 0 0 0 0 0 0 0 0 0 0 0 0 0 0
$$ ##$ACBTFLO= (0..23)
$$ 0 6 180 6 30 91 0 0 0 0 0 0 0 0 0 0 0 0 0 0 0 0 0 0
$$ ##$ACBTINP= (0..23)
$$ 0 3 2 1 16 0 0 0 0 0 0 0 0 0 0 0 0 0 0 0 0 0 0 0
$$ ##$ACBTOUT= (0..23)
$$ 0 1 1 2 3 1 0 0 0 0 0 0 0 0 0 0 0 0 0 0 0 0 0 0
$$ ##$ACBTPO= (0..23)
$$ 0 300000 100000 300000 150000 5000 0 0 0 0 0 0 0 0 0 0 0 0 0 0 0 0 0 0
$$ ##$ACBTPW= (0..23)
$$ 0 100 100 100 5 1000 0 0 0 0 0 0 0 0 0 0 0 0 0 0 0 0 0 0
$$ ##$ACBTSB= (0..23)
$$ 0 0 0 0 0 0 0 0 0 0 0 0 0 0 0 0 0 0 0 0 0 0 0 0
$$ ##$ACBTSDT= (0..23)
$$ 0 2 2 2 2 2 0 0 0 0 0 0 0 0 0 0 0 0 0 0 0 0 0 0
$$ ##$ACBTY= <no>
$$ ##$AMPDFLT= no
$$ ##$AQSBDCH= (0..95)
$$ 0 0 0 0 0 0 0 0 255 255 255 255 255 255 255 255 255 255 255 255 255 255
$$ 255 255 255 255 255 255 255 255 255 255 255 255 255 255 255 255 255 255
$$ 255 255 255 255 255 255 255 255 255 255 255 255 255 255 255 255 255 255
$$ 255 255 255 255 255 255 255 255 255 255 255 255 255 255 255 255 255 255
$$ 255 255 255 255 255 255 255 255 255 255 255 255 255 255 255 255 255 255
$$ 255 255
$$ ##$AQSBDHW= (0..95)
$$ 4 1 8 8 8 0 0 0 255 255 255 255 255 255 255 255 255 255 255 255 255 255
$$ 255 255 255 255 255 255 255 255 255 255 255 255 255 255 255 255 255 255
$$ 255 255 255 255 255 255 255 255 255 255 255 255 255 255 255 255 255 255
$$ 255 255 255 255 255 255 255 255 255 255 255 255 255 255 255 255 255 255
$$ 255 255 255 255 255 255 255 255 255 255 255 255 255 255 255 255 255 255
$$ 255 255
$$ ##$AQSBDID= (0..95)
$$ 82 88 83 83 83 80 66 66 255 255 255 255 255 255 255 255 255 255 255 255
$$ 255 255 255 255 255 255 255 255 255 255 255 255 255 255 255 255 255 255
$$ 255 255 255 255 255 255 255 255 255 255 255 255 255 255 255 255 255 255
$$ 255 255 255 255 255 255 255 255 255 255 255 255 255 255 255 255 255 255
$$ 255 255 255 255 255 255 255 255 255 255 255 255 255 255 255 255 255 255
$$ 255 255 255 255
$$ ##$AQSBDNO= (0..95)
$$ 1 1 1 2 3 1 1 1 255 255 255 255 255 255 255 255 255 255 255 255 255 255
$$ 255 255 255 255 255 255 255 255 255 255 255 255 255 255 255 255 255 255
$$ 255 255 255 255 255 255 255 255 255 255 255 255 255 255 255 255 255 255
$$ 255 255 255 255 255 255 255 255 255 255 255 255 255 255 255 255 255 255
$$ 255 255 255 255 255 255 255 255 255 255 255 255 255 255 255 255 255 255
$$ 255 255
$$ ##$AQSBDSL= (0..95)
$$ 2 3 4 5 6 21 255 1 255 255 255 255 255 255 255 255 255 255 255 255 255
$$ 255 255 255 255 255 255 255 255 255 255 255 255 255 255 255 255 255 255
$$ 255 255 255 255 255 255 255 255 255 255 255 255 255 255 255 255 255 255
$$ 255 255 255 255 255 255 255 255 255 255 255 255 255 255 255 255 255 255
$$ 255 255 255 255 255 255 255 255 255 255 255 255 255 255 255 255 255 255
$$ 255 255 255
$$ ##$AQSBDTY= (0..95)
$$ 66 192 25 25 25 207 209 7 255 255 255 255 255 255 255 255 255 255 255 255
$$ 255 255 255 255 255 255 255 255 255 255 255 255 255 255 255 255 255 255
$$ 255 255 255 255 255 255 255 255 255 255 255 255 255 255 255 255 255 255
$$ 255 255 255 255 255 255 255 255 255 255 255 255 255 255 255 255 255 255
$$ 255 255 255 255 255 255 255 255 255 255 255 255 255 255 255 255 255 255
$$ 255 255 255 255
$$ ##$AQSBUAD= (0..95)
$$ 16 52 36 37 38 33 32 32 255 255 255 255 255 255 255 255 255 255 255 255
$$ 255 255 255 255 255 255 255 255 255 255 255 255 255 255 255 255 255 255
$$ 255 255 255 255 255 255 255 255 255 255 255 255 255 255 255 255 255 255
$$ 255 255 255 255 255 255 255 255 255 255 255 255 255 255 255 255 255 255
$$ 255 255 255 255 255 255 255 255 255 255 255 255 255 255 255 255 255 255
$$ 255 255 255 255
$$ ##$AQSECL= (0..95)
$$ 5 2 2 2 2 10 3 255 255 255 255 255 255 255 255 255 255 255 255 255 255
$$ 255 255 255 255 255 255 255 255 255 255 255 255 255 255 255 255 255 255
$$ 255 255 255 255 255 255 255 255 255 255 255 255 255 255 255 255 255 255
$$ 255 255 255 255 255 255 255 255 255 255 255 255 255 255 255 255 255 255
$$ 255 255 255 255 255 255 255 255 255 255 255 255 255 255 255 255 255 255
$$ 255 255 255
$$ ##$AQSECLS= (0..95)
$$ 0 2 7 7 7 0 2 255 255 255 255 255 255 255 255 255 255 255 255 255 255 255
$$ 255 255 255 255 255 255 255 255 255 255 255 255 255 255 255 255 255 255
$$ 255 255 255 255 255 255 255 255 255 255 255 255 255 255 255 255 255 255
$$ 255 255 255 255 255 255 255 255 255 255 255 255 255 255 255 255 255 255
$$ 255 255 255 255 255 255 255 255 255 255 255 255 255 255 255 255 255 255
$$ 255 255
$$ ##$AQSETH1= <no>
$$ ##$AQSETH2= <no>
$$ ##$AQSSPLT= no
$$ ##$ATT19F= (0..1)
$$ 0 0
$$ ##$ATT1H= (0..1)
$$ 0 0
$$ ##$ATT3H= (0..1)
$$ 0 0
$$ ##$ATTX= (0..1)
$$ 0 0
$$ ##$ATTY= (0..1)
$$ 0 0
$$ ##$ATTZ= (0..1)
$$ 0 0
$$ ##$BACSAIR= yes
$$ ##$BACSCAP= 60
$$ ##$BACSDEL= 10
$$ ##$BACSFCM= no
$$ ##$BACSOPT= <>
$$ ##$BACSTY= <tty04>
$$ ##$BARPTY= <no>
$$ ##$BFREQ= 600.13
$$ ##$BGAETH= (0..9)
$$ <no> <no> <no> <no> <no> <no> <no> <no> <no> <no>
$$ ##$BIRDS= yes
$$ ##$BMPC= 0
$$ ##$BMPCTY= <no>
$$ ##$BPSUTY= <no>
$$ ##$BSMS= 2
$$ ##$BSMS19FLock= no
$$ ##$BSMSETH= <149.236.99.20>
$$ ##$BSMSTY= <no>
$$ ##$BgaChFac2= (0..7)
$$ 0 0 0 0 0 0 0 0
$$ ##$BgaChMap= (0..7)
$$ 0 0 0 0 0 0 0 0
$$ ##$BgaChMaxv= (0..7)
$$ 0 0 0 0 0 0 0 0
$$ ##$BgaChRouting= (0..63)
$$ 0 0 0 0 0 0 0 0 0 0 0 0 0 0 0 0 0 0 0 0 0 0 0 0 0 0 0 0 0 0 0 0 0 0 0 0
$$ 0 0 0 0 0 0 0 0 0 0 0 0 0 0 0 0 0 0 0 0 0 0 0 0 0 0 0 0
$$ ##$BgaChShimMap= (0..7)
$$ 0 0 0 0 0 0 0 0
$$ ##$BgaChShimMaxv= (0..7)
$$ 0 0 0 0 0 0 0 0
$$ ##$Bla01Eth= <149.236.99.254>
$$ ##$Bla01Nam= <BLAX300 E 6-365MHZ INR>
$$ ##$Bla01PN= <W1345092>
$$ ##$Bla01SN= <0421>
$$ ##$Bla02Eth= <149.236.99.253>
$$ ##$Bla02Nam= <BLAXH2H300/100/150 E 200-600MHZ>
$$ ##$Bla02PN= <W1345096>
$$ ##$Bla02SN= <0666>
$$ ##$Bla03Eth= <149.236.99.20>
$$ ##$Bla03Nam= <BSMS/2 LOCK TRANSCEIVER 600>
$$ ##$Bla03PN= <Z109890>
$$ ##$Bla03SN= <00158>
$$ ##$Bla04Eth= <no>
$$ ##$Bla04Nam= <>
$$ ##$Bla04PN= <>
$$ ##$Bla04SN= <>
$$ ##$Bla05Eth= <no>
$$ ##$Bla05Nam= <>
$$ ##$Bla05PN= <>
$$ ##$Bla05SN= <>
$$ ##$Bla06Eth= <no>
$$ ##$Bla06Nam= <>
$$ ##$Bla06PN= <>
$$ ##$Bla06SN= <>
$$ ##$Bla07Eth= <no>
$$ ##$Bla07Nam= <>
$$ ##$Bla07PN= <>
$$ ##$Bla07SN= <>
$$ ##$Bla08Eth= <no>
$$ ##$Bla08Nam= <>
$$ ##$Bla08PN= <>
$$ ##$Bla08SN= <>
$$ ##$BlaEth= (0..9)
$$ <149.236.99.254> <149.236.99.253> <149.236.99.20> <no> <no> <no> <no> <no>
$$ <> <>
$$ ##$BlaNam= (0..9)
$$ <BLAX300 E 6-365MHZ INR> <BLAXH2H300/100/150 E 200-600MHZ > <BSMS/2 LOCK TRANSCEIVER 600>
$$ <> <> <> <> <> <> <>
$$ ##$BlaPN= (0..9)
$$ <W1345092> <W1345096> <Z109890> <> <> <> <> <> <> <>
$$ ##$BlaSN= (0..9)
$$ <0421> <0666> <00158> <> <> <> <> <> <> <>
$$ ##$BsmsAuxEth= <no>
$$ ##$CFASMOD= (0..7)
$$ 1 1 1 1 1 1 1 1
$$ ##$CFASMUL= (0..7)
$$ 1 1 1 1 1 1 1 1
$$ ##$CNFTXDR= (0..7)
$$ 6 6 6 0 0 0 0 0
$$ ##$COMDIG2= 0
$$ ##$CPDBTY= <no>
$$ ##$CRCOTY= <tty05>
$$ ##$CSW1= (0..31)
$$ 3 3 0 2 2 0 16 0 0 0 0 0 0 0 0 0 0 0 0 0 0 0 0 0 0 0 0 0 0 0 0 0
$$ ##$CSW2= (0..31)
$$ 0 0 0 1 1 0 0 0 0 0 0 0 0 0 0 0 0 0 0 0 0 0 0 0 0 0 0 0 0 0 0 0
$$ ##$CSWNUM= (0..7)
$$ 3 4 1 0 0 0 0 0
$$ ##$Ctb1Eth= <no>
$$ ##$CubeEth= (0..7)
$$ <no> <no> <no> <no> <no> <no> <no> <no>
$$ ##$DATSTAT= no
$$ ##$DIGI140= (0..7)
$$ 0 0 0 0 0 0 0 0
$$ ##$DIGIB12= (0..7)
$$ 0 0 0 0 0 0 0 0
$$ ##$DIGIB16= (0..7)
$$ 0 0 0 0 0 0 0 0
$$ ##$DIGIFA= (0..7)
$$ 0 0 0 0 0 0 0 0
$$ ##$DIGIFOURIER= 0
$$ ##$DIGIHA= (0..7)
$$ 0 0 0 0 0 0 0 0
$$ ##$DIGIHAF= (0..7)
$$ 0 0 0 0 0 0 0 0
$$ ##$DIGIHRD= (0..7)
$$ 0 0 0 0 0 0 0 0
$$ ##$DIGIIA= (0..7)
$$ 0 0 0 0 0 0 0 0
$$ ##$DIGIO16= (0..7)
$$ 0 0 0 0 0 0 0 0
$$ ##$DIGISA= (0..7)
$$ 0 0 0 0 0 0 0 0
$$ ##$DIGISAF= (0..7)
$$ 0 0 0 0 0 0 0 0
$$ ##$DIGISL= (0..7)
$$ 0 0 0 0 0 0 0 0
$$ ##$DIGITYI= (0..7)
$$ 0 0 0 0 0 0 0 0
$$ ##$DIGITYP= (0..7)
$$ 0 0 0 0 0 0 0 0
$$ ##$DIGITZ= 0
$$ ##$DPPFAC= 1
$$ ##$DRMSETH= <no>
$$ ##$DRU= yes
$$ ##$DRUETH= (0..33)
$$ <no> <149.236.99.89> <no> <no> <no> <no> <no> <no> <no> <no> <no> <no>
$$ <no> <no> <no> <no> <no> <no> <no> <no> <no> <no> <no> <no> <no> <no> <no>
$$ <no> <no> <no> <no> <no> <no> <>
$$ ##$Description= <Avance III 600>
$$ ##$DppType= 0
$$ ##$FCUMEM= (0..7)
$$ 16777208 16777208 16777208 0 0 0 0 0
$$ ##$FCUPAL= (0..7)
$$ 0 0 0 0 0 0 0 0
$$ ##$FGSVTY= <no>
$$ ##$FQMIX= 0
$$ ##$FUNCMOD= <>
$$ ##$FourPeriBdEth= <no>
$$ ##$FourShimBdEth= <no>
$$ ##$FourierPicsCon= no
$$ ##$GCUTYPE= 10
$$ ##$GCUTYPE2= 0
$$ ##$GPREDEL= 0
$$ ##$GPSCUTY= <no>
$$ ##$GRADRES= 5
$$ ##$GTUTY= <no>
$$ ##$GcConn= (0..1)
$$ 1 0
$$ ##$GradAmpGain= (0..7)
$$ 0 0 0 0 0 0 0 0
$$ ##$GradAmpMaxCurX= (0..7)
$$ 0 0 0 0 0 0 0 0
$$ ##$GradAmpMaxCurY= (0..7)
$$ 0 0 0 0 0 0 0 0
$$ ##$GradAmpMaxCurZ= (0..7)
$$ 9.99999904632568 0 0 0 0 0 0 0
$$ ##$GradAmpName= (0..7)
$$ <GAB in BSMS> <> <> <> <> <> <> <>
$$ ##$GradAmpPN= (0..7)
$$ <> <> <> <> <> <> <> <>
$$ ##$GradAmpSN= (0..7)
$$ <> <> <> <> <> <> <> <>
$$ ##$GradAmpType= (0..7)
$$ 2 0 0 0 0 0 0 0
$$ ##$GradPowClkCtrl= 0
$$ ##$GradPowClkTime= 0
$$ ##$GradPowImax= 0
$$ ##$GradPowType= 0
$$ ##$GradPowVmax= 0
$$ ##$HDIETH= (0..5)
$$ <> <no> <no> <no> <no> <>
$$ ##$HFAC= 3
$$ ##$HPCU= 0
$$ ##$HPCUTY= <no>
$$ ##$HPTXLP= (0..3)
$$ -1 -1 -1 -1
$$ ##$HPTXPI= (0..3)
$$ 0 0 0 0
$$ ##$HPTXPO= (0..3)
$$ 0 0 0 0
$$ ##$HPTXTY= (0..3)
$$ 0 0 0 0
$$ ##$HpprCoverType= 1
$$ ##$IF451= 0
$$ ##$IFREQ= 1
$$ ##$INJPTY= <no>
$$ ##$INTFPR= 0
$$ ##$IPSOETH= <149.236.99.252>
$$ ##$IPSOTYPE= 1
$$ ##$LDUETH= (0..0)
$$ <no>
$$ ##$LOCKCONF= <DLM>
$$ ##$LOCKTY= <no>
$$ ##$LOCSWID= 0
$$ ##$LOCSWIF= 0
$$ ##$LVDSSPLITETH= (0..5)
$$ <> <no> <no> <no> <no> <>
$$ ##$Location= <Universitaet Mainz>
$$ ##$M2FAC= 0
$$ ##$MAS= 0
$$ ##$MASETIME= 10
$$ ##$MASITIME= 10
$$ ##$MASTY= <no>
$$ ##$MAS_CT= 5
$$ ##$MAS_SG= 0
$$ ##$MAS_TO= 0
$$ ##$MEMPRM= 0
$$ ##$MHFAC= 0
$$ ##$MXFAC= 0
$$ ##$MasEth= <no>
$$ ##$NAMPD= (0..17)
$$ <> <1H LNA> <XBB19F 2HS> <XBB19F 2HS> <13C> <15N> <2H> <> <> <> <> <> <>
$$ <> <> <> <> <>
$$ ##$NFCU= 3
$$ ##$NFRED= 0
$$ ##$NMRCH= 2
$$ ##$NMRMEM= 16384
$$ ##$NPSGU= 0
$$ ##$NRCU= 1
$$ ##$NROUT= 0
$$ ##$NSGU= 3
$$ ##$OrderNo= <10029758>
$$ ##$PAMPF1= (0..15)
$$ 75 24 64 64 80 80 96 0 0 0 0 0 0 0 0 0
$$ ##$PAMPF2= (0..15)
$$ 0 0 0 0 0 0 0 0 0 0 0 0 0 0 0 0
$$ ##$PAMPF3= (0..15)
$$ 0 0 0 0 0 0 0 0 0 0 0 0 0 0 0 0
$$ ##$PAMPF4= (0..15)
$$ 0 0 0 0 0 0 0 0 0 0 0 0 0 0 0 0
$$ ##$PAMPF5= (0..15)
$$ 0 0 0 0 0 0 0 0 0 0 0 0 0 0 0 0
$$ ##$PAMPF6= (0..15)
$$ 0 0 0 0 0 0 0 0 0 0 0 0 0 0 0 0
$$ ##$PAMPF7= (0..15)
$$ 0 0 0 0 0 0 0 0 0 0 0 0 0 0 0 0
$$ ##$PAMPF8= (0..15)
$$ 0 0 0 0 0 0 0 0 0 0 0 0 0 0 0 0
$$ ##$PH4= 0
$$ ##$PHF4TY= <no>
$$ ##$POWCHK= yes
$$ ##$PRAMD1= (0..7)
$$ 2 0 0 536870912 0 0 0 0
$$ ##$PRAMD10= (0..7)
$$ 0 0 0 0 0 0 0 0
$$ ##$PRAMD11= (0..7)
$$ 0 0 0 0 0 0 0 0
$$ ##$PRAMD12= (0..7)
$$ 0 0 0 0 0 0 0 0
$$ ##$PRAMD13= (0..7)
$$ 0 0 0 0 0 0 0 0
$$ ##$PRAMD14= (0..7)
$$ 0 0 0 0 0 0 0 0
$$ ##$PRAMD15= (0..7)
$$ 0 0 0 0 0 0 0 0
$$ ##$PRAMD16= (0..7)
$$ 0 0 0 0 0 0 0 0
$$ ##$PRAMD17= (0..7)
$$ 0 0 0 0 0 0 0 0
$$ ##$PRAMD18= (0..7)
$$ 0 0 0 0 0 0 0 0
$$ ##$PRAMD19= (0..7)
$$ 0 0 0 0 0 0 0 0
$$ ##$PRAMD2= (0..7)
$$ 2147483644 2131230719 2147483647 603979775 0 0 0 0
$$ ##$PRAMD20= (0..7)
$$ 0 0 0 0 0 0 0 0
$$ ##$PRAMD21= (0..7)
$$ 0 0 0 0 0 0 0 0
$$ ##$PRAMD3= (0..7)
$$ 2147483644 2131230719 2147483647 603979775 0 0 0 0
$$ ##$PRAMD4= (0..7)
$$ 16777216 0 0 536870912 0 0 0 0
$$ ##$PRAMD5= (0..7)
$$ 0 0 4 536870912 0 0 0 0
$$ ##$PRAMD6= (0..7)
$$ 0 1048576 0 536870912 0 1048576 0 536870912
$$ ##$PRAMD7= (0..7)
$$ 0 0 0 0 0 0 0 0
$$ ##$PRAMD8= (0..7)
$$ 0 0 0 0 0 0 0 0
$$ ##$PRAMD9= (0..7)
$$ 0 0 0 0 0 0 0 0
$$ ##$PRAMLED= (0..1)
$$ 15 15
$$ ##$PRAMP= (0..9)
$$ <> <tty10> <no> <no> <no> <no> <no> <no> <no> <>
$$ ##$PRAMPTP= 1
$$ ##$PREEMPTYPE= 0
$$ ##$PREPTY= <no>
$$ ##$PREREC= (0..15)
$$ 0 1 1 1 1 1 1 0 0 0 0 0 0 0 0 0
$$ ##$PRESHLD= 0
$$ ##$PTS160= -1
$$ ##$PTSA2X= (0..7)
$$ 0 0 0 0 0 0 0 0
$$ ##$PTSF2X= (0..7)
$$ 0 0 0 0 0 0 0 0
$$ ##$PTSFMX= (0..19)
$$ 643.52499 643.52499 643.52499 0 0 0 0 0 0 0 0 0 0 0 0 0 0 0 0 0
$$ ##$PULCHK= no
$$ ##$PerMagATempSens= no
$$ ##$PerMagEth= <no>
$$ ##$PerMagFluxSens= no
$$ ##$PerMagMTempSens= no
$$ ##$PramDutyCycPerc= (0..15)
$$ 2 2 2 2 2 2 0 0 0 0 0 0 0 0 0 0
$$ ##$PramPeakPowerW= (0..15)
$$ 100 500 500 500 500 500 0 0 0 0 0 0 0 0 0 0
$$ ##$PramPowerSwitch= (0..15)
$$ 0 0 0 0 0 0 0 0 0 0 0 0 0 0 0 0
$$ ##$PramPulWidthMs= (0..15)
$$ 0.02 0.1 0.1 0.1 0.1 0.1 0 0 0 0 0 0 0 0 0 0
$$ ##$PreampMod01PN= <Z003462>
$$ ##$PreampMod01SN= <00785>
$$ ##$PreampMod02PN= <Z003506>
$$ ##$PreampMod02SN= <00942>
$$ ##$PreampMod03PN= <Z003506>
$$ ##$PreampMod03SN= <00943>
$$ ##$PreampMod04PN= <Z003524>
$$ ##$PreampMod04SN= <00674>
$$ ##$PreampMod05PN= <Z003530>
$$ ##$PreampMod05SN= <00672>
$$ ##$PreampMod06PN= <Z003473>
$$ ##$PreampMod06SN= <00811>
$$ ##$PreampMod07PN= <>
$$ ##$PreampMod07SN= <>
$$ ##$PreampMod08PN= <>
$$ ##$PreampMod08SN= <>
$$ ##$PreampMod09PN= <>
$$ ##$PreampMod09SN= <>
$$ ##$PreampMod10PN= <>
$$ ##$PreampMod10SN= <>
$$ ##$PreampMod11PN= <>
$$ ##$PreampMod11SN= <>
$$ ##$PreampMod12PN= <>
$$ ##$PreampMod12SN= <>
$$ ##$PreampMod13PN= <>
$$ ##$PreampMod13SN= <>
$$ ##$PreampMod14PN= <>
$$ ##$PreampMod14SN= <>
$$ ##$PreampMod15PN= <>
$$ ##$PreampMod15SN= <>
$$ ##$PreampMod16PN= <>
$$ ##$PreampMod16SN= <>
$$ ##$PreampModBisDat= (0..15)
$$ 20110222 20110217 20110217 20110513 20110614 20110120 0 0 0 0 0 0 0 0 0
$$ 0
$$ ##$PreampModPN= (0..17)
$$ <Z003462> <Z003506> <Z003506> <Z003524> <Z003530> <Z003473> <> <> <> <>
$$ <> <> <> <> <> <> <> <>
$$ ##$PreampModSN= (0..17)
$$ <00785> <00942> <00943> <00674> <00672> <00811> <> <> <> <> <> <> <> <>
$$ <> <> <> <>
$$ ##$ProdigyEth= <no>
$$ ##$RCUCDS= (0..7)
$$ 0 0 0 0 0 0 0 0
$$ ##$RCUCFS= (0..7)
$$ 0 0 0 0 0 0 0 0
$$ ##$RCUCSS= (0..7)
$$ 0 0 0 0 0 0 0 0
$$ ##$RCUI2C1= (0..7)
$$ 0 0 0 0 0 0 0 0
$$ ##$RCUI2C2= (0..7)
$$ 0 0 0 0 0 0 0 0
$$ ##$RCUI2C3= (0..7)
$$ 0 0 0 0 0 0 0 0
$$ ##$RCUI2C4= (0..7)
$$ 0 0 0 0 0 0 0 0
$$ ##$RCUI2C5= (0..7)
$$ 0 0 0 0 0 0 0 0
$$ ##$RCUI2C6= (0..7)
$$ 0 0 0 0 0 0 0 0
$$ ##$RCUI2C7= (0..7)
$$ 0 0 0 0 0 0 0 0
$$ ##$RCUI2C8= (0..7)
$$ 0 0 0 0 0 0 0 0
$$ ##$RDCU= 0
$$ ##$RFSINPUT= (0..1)
$$ 0 0
$$ ##$RFSVTY= <no>
$$ ##$RGTYPE= (0..31)
$$ 9 0 0 0 0 0 0 0 0 0 0 0 0 0 0 0 0 0 0 0 0 0 0 0 0 0 0 0 0 0 0 0
$$ ##$RG_max= (0..31)
$$ 2050 -1 -1 -1 -1 -1 -1 -1 -1 -1 -1 -1 -1 -1 -1 -1 -1 -1 -1 -1 -1 -1 -1
$$ -1 -1 -1 -1 -1 -1 -1 -1 -1
$$ ##$RG_min= (0..31)
$$ 0.25 -1 -1 -1 -1 -1 -1 -1 -1 -1 -1 -1 -1 -1 -1 -1 -1 -1 -1 -1 -1 -1 -1
$$ -1 -1 -1 -1 -1 -1 -1 -1 -1
$$ ##$RG_tab1= (0..255)
$$ 0.25 0.28 0.32 0.35 0.4 0.44 0.5 0.56 0.64 0.7 0.8 0.89 1 1.12 1.28 1.4
$$ 1.6 1.78 2 2.25 2.56 2.8 3.2 3.56 4 4.5 5 5.6 6.35 7.12 8 9 10 11.3 12.7
$$ 14.2 16 18 20.2 22.6 25.4 28.5 32 36 40.3 45.2 50.8 57 64 71.8 80.6 90.5
$$ 101 114 128 144 161 181 203 228 256 287 322 362 406 456 512 575 645 724
$$ 812 912 1030 1150 1290 1440 1620 1820 2050 -1 -1 -1 -1 -1 -1 -1 -1 -1 -1
$$ -1 -1 -1 -1 -1 -1 -1 -1 -1 -1 -1 -1 -1 -1 -1 -1 -1 -1 -1 -1 -1 -1 -1 -1
$$ -1 -1 -1 -1 -1 -1 -1 -1 -1 -1 -1 -1 -1 -1 -1 -1 -1 -1 -1 -1 -1 -1 -1 -1
$$ -1 -1 -1 -1 -1 -1 -1 -1 -1 -1 -1 -1 -1 -1 -1 -1 -1 -1 -1 -1 -1 -1 -1 -1
$$ -1 -1 -1 -1 -1 -1 -1 -1 -1 -1 -1 -1 -1 -1 -1 -1 -1 -1 -1 -1 -1 -1 -1 -1
$$ -1 -1 -1 -1 -1 -1 -1 -1 -1 -1 -1 -1 -1 -1 -1 -1 -1 -1 -1 -1 -1 -1 -1 -1
$$ -1 -1 -1 -1 -1 -1 -1 -1 -1 -1 -1 -1 -1 -1 -1 -1 -1 -1 -1 -1 -1 -1 -1 -1
$$ -1 -1 -1 -1 -1 -1 -1 -1 -1 -1 -1 -1 -1 -1 -1 -1 -1 -1 -1 -1 -1 -1 -1
$$ ##$RG_tab2= (0..255)
$$ -1 -1 -1 -1 -1 -1 -1 -1 -1 -1 -1 -1 -1 -1 -1 -1 -1 -1 -1 -1 -1 -1 -1 -1
$$ -1 -1 -1 -1 -1 -1 -1 -1 -1 -1 -1 -1 -1 -1 -1 -1 -1 -1 -1 -1 -1 -1 -1 -1
$$ -1 -1 -1 -1 -1 -1 -1 -1 -1 -1 -1 -1 -1 -1 -1 -1 -1 -1 -1 -1 -1 -1 -1 -1
$$ -1 -1 -1 -1 -1 -1 -1 -1 -1 -1 -1 -1 -1 -1 -1 -1 -1 -1 -1 -1 -1 -1 -1 -1
$$ -1 -1 -1 -1 -1 -1 -1 -1 -1 -1 -1 -1 -1 -1 -1 -1 -1 -1 -1 -1 -1 -1 -1 -1
$$ -1 -1 -1 -1 -1 -1 -1 -1 -1 -1 -1 -1 -1 -1 -1 -1 -1 -1 -1 -1 -1 -1 -1 -1
$$ -1 -1 -1 -1 -1 -1 -1 -1 -1 -1 -1 -1 -1 -1 -1 -1 -1 -1 -1 -1 -1 -1 -1 -1
$$ -1 -1 -1 -1 -1 -1 -1 -1 -1 -1 -1 -1 -1 -1 -1 -1 -1 -1 -1 -1 -1 -1 -1 -1
$$ -1 -1 -1 -1 -1 -1 -1 -1 -1 -1 -1 -1 -1 -1 -1 -1 -1 -1 -1 -1 -1 -1 -1 -1
$$ -1 -1 -1 -1 -1 -1 -1 -1 -1 -1 -1 -1 -1 -1 -1 -1 -1 -1 -1 -1 -1 -1 -1 -1
$$ -1 -1 -1 -1 -1 -1 -1 -1 -1 -1 -1 -1 -1 -1 -1 -1
$$ ##$RG_tab3= (0..255)
$$ -1 -1 -1 -1 -1 -1 -1 -1 -1 -1 -1 -1 -1 -1 -1 -1 -1 -1 -1 -1 -1 -1 -1 -1
$$ -1 -1 -1 -1 -1 -1 -1 -1 -1 -1 -1 -1 -1 -1 -1 -1 -1 -1 -1 -1 -1 -1 -1 -1
$$ -1 -1 -1 -1 -1 -1 -1 -1 -1 -1 -1 -1 -1 -1 -1 -1 -1 -1 -1 -1 -1 -1 -1 -1
$$ -1 -1 -1 -1 -1 -1 -1 -1 -1 -1 -1 -1 -1 -1 -1 -1 -1 -1 -1 -1 -1 -1 -1 -1
$$ -1 -1 -1 -1 -1 -1 -1 -1 -1 -1 -1 -1 -1 -1 -1 -1 -1 -1 -1 -1 -1 -1 -1 -1
$$ -1 -1 -1 -1 -1 -1 -1 -1 -1 -1 -1 -1 -1 -1 -1 -1 -1 -1 -1 -1 -1 -1 -1 -1
$$ -1 -1 -1 -1 -1 -1 -1 -1 -1 -1 -1 -1 -1 -1 -1 -1 -1 -1 -1 -1 -1 -1 -1 -1
$$ -1 -1 -1 -1 -1 -1 -1 -1 -1 -1 -1 -1 -1 -1 -1 -1 -1 -1 -1 -1 -1 -1 -1 -1
$$ -1 -1 -1 -1 -1 -1 -1 -1 -1 -1 -1 -1 -1 -1 -1 -1 -1 -1 -1 -1 -1 -1 -1 -1
$$ -1 -1 -1 -1 -1 -1 -1 -1 -1 -1 -1 -1 -1 -1 -1 -1 -1 -1 -1 -1 -1 -1 -1 -1
$$ -1 -1 -1 -1 -1 -1 -1 -1 -1 -1 -1 -1 -1 -1 -1 -1
$$ ##$RG_tab4= (0..255)
$$ -1 -1 -1 -1 -1 -1 -1 -1 -1 -1 -1 -1 -1 -1 -1 -1 -1 -1 -1 -1 -1 -1 -1 -1
$$ -1 -1 -1 -1 -1 -1 -1 -1 -1 -1 -1 -1 -1 -1 -1 -1 -1 -1 -1 -1 -1 -1 -1 -1
$$ -1 -1 -1 -1 -1 -1 -1 -1 -1 -1 -1 -1 -1 -1 -1 -1 -1 -1 -1 -1 -1 -1 -1 -1
$$ -1 -1 -1 -1 -1 -1 -1 -1 -1 -1 -1 -1 -1 -1 -1 -1 -1 -1 -1 -1 -1 -1 -1 -1
$$ -1 -1 -1 -1 -1 -1 -1 -1 -1 -1 -1 -1 -1 -1 -1 -1 -1 -1 -1 -1 -1 -1 -1 -1
$$ -1 -1 -1 -1 -1 -1 -1 -1 -1 -1 -1 -1 -1 -1 -1 -1 -1 -1 -1 -1 -1 -1 -1 -1
$$ -1 -1 -1 -1 -1 -1 -1 -1 -1 -1 -1 -1 -1 -1 -1 -1 -1 -1 -1 -1 -1 -1 -1 -1
$$ -1 -1 -1 -1 -1 -1 -1 -1 -1 -1 -1 -1 -1 -1 -1 -1 -1 -1 -1 -1 -1 -1 -1 -1
$$ -1 -1 -1 -1 -1 -1 -1 -1 -1 -1 -1 -1 -1 -1 -1 -1 -1 -1 -1 -1 -1 -1 -1 -1
$$ -1 -1 -1 -1 -1 -1 -1 -1 -1 -1 -1 -1 -1 -1 -1 -1 -1 -1 -1 -1 -1 -1 -1 -1
$$ -1 -1 -1 -1 -1 -1 -1 -1 -1 -1 -1 -1 -1 -1 -1 -1
$$ ##$RG_tab5= (0..255)
$$ -1 -1 -1 -1 -1 -1 -1 -1 -1 -1 -1 -1 -1 -1 -1 -1 -1 -1 -1 -1 -1 -1 -1 -1
$$ -1 -1 -1 -1 -1 -1 -1 -1 -1 -1 -1 -1 -1 -1 -1 -1 -1 -1 -1 -1 -1 -1 -1 -1
$$ -1 -1 -1 -1 -1 -1 -1 -1 -1 -1 -1 -1 -1 -1 -1 -1 -1 -1 -1 -1 -1 -1 -1 -1
$$ -1 -1 -1 -1 -1 -1 -1 -1 -1 -1 -1 -1 -1 -1 -1 -1 -1 -1 -1 -1 -1 -1 -1 -1
$$ -1 -1 -1 -1 -1 -1 -1 -1 -1 -1 -1 -1 -1 -1 -1 -1 -1 -1 -1 -1 -1 -1 -1 -1
$$ -1 -1 -1 -1 -1 -1 -1 -1 -1 -1 -1 -1 -1 -1 -1 -1 -1 -1 -1 -1 -1 -1 -1 -1
$$ -1 -1 -1 -1 -1 -1 -1 -1 -1 -1 -1 -1 -1 -1 -1 -1 -1 -1 -1 -1 -1 -1 -1 -1
$$ -1 -1 -1 -1 -1 -1 -1 -1 -1 -1 -1 -1 -1 -1 -1 -1 -1 -1 -1 -1 -1 -1 -1 -1
$$ -1 -1 -1 -1 -1 -1 -1 -1 -1 -1 -1 -1 -1 -1 -1 -1 -1 -1 -1 -1 -1 -1 -1 -1
$$ -1 -1 -1 -1 -1 -1 -1 -1 -1 -1 -1 -1 -1 -1 -1 -1 -1 -1 -1 -1 -1 -1 -1 -1
$$ -1 -1 -1 -1 -1 -1 -1 -1 -1 -1 -1 -1 -1 -1 -1 -1
$$ ##$RG_tab6= (0..255)
$$ -1 -1 -1 -1 -1 -1 -1 -1 -1 -1 -1 -1 -1 -1 -1 -1 -1 -1 -1 -1 -1 -1 -1 -1
$$ -1 -1 -1 -1 -1 -1 -1 -1 -1 -1 -1 -1 -1 -1 -1 -1 -1 -1 -1 -1 -1 -1 -1 -1
$$ -1 -1 -1 -1 -1 -1 -1 -1 -1 -1 -1 -1 -1 -1 -1 -1 -1 -1 -1 -1 -1 -1 -1 -1
$$ -1 -1 -1 -1 -1 -1 -1 -1 -1 -1 -1 -1 -1 -1 -1 -1 -1 -1 -1 -1 -1 -1 -1 -1
$$ -1 -1 -1 -1 -1 -1 -1 -1 -1 -1 -1 -1 -1 -1 -1 -1 -1 -1 -1 -1 -1 -1 -1 -1
$$ -1 -1 -1 -1 -1 -1 -1 -1 -1 -1 -1 -1 -1 -1 -1 -1 -1 -1 -1 -1 -1 -1 -1 -1
$$ -1 -1 -1 -1 -1 -1 -1 -1 -1 -1 -1 -1 -1 -1 -1 -1 -1 -1 -1 -1 -1 -1 -1 -1
$$ -1 -1 -1 -1 -1 -1 -1 -1 -1 -1 -1 -1 -1 -1 -1 -1 -1 -1 -1 -1 -1 -1 -1 -1
$$ -1 -1 -1 -1 -1 -1 -1 -1 -1 -1 -1 -1 -1 -1 -1 -1 -1 -1 -1 -1 -1 -1 -1 -1
$$ -1 -1 -1 -1 -1 -1 -1 -1 -1 -1 -1 -1 -1 -1 -1 -1 -1 -1 -1 -1 -1 -1 -1 -1
$$ -1 -1 -1 -1 -1 -1 -1 -1 -1 -1 -1 -1 -1 -1 -1 -1
$$ ##$RG_tab7= (0..255)
$$ -1 -1 -1 -1 -1 -1 -1 -1 -1 -1 -1 -1 -1 -1 -1 -1 -1 -1 -1 -1 -1 -1 -1 -1
$$ -1 -1 -1 -1 -1 -1 -1 -1 -1 -1 -1 -1 -1 -1 -1 -1 -1 -1 -1 -1 -1 -1 -1 -1
$$ -1 -1 -1 -1 -1 -1 -1 -1 -1 -1 -1 -1 -1 -1 -1 -1 -1 -1 -1 -1 -1 -1 -1 -1
$$ -1 -1 -1 -1 -1 -1 -1 -1 -1 -1 -1 -1 -1 -1 -1 -1 -1 -1 -1 -1 -1 -1 -1 -1
$$ -1 -1 -1 -1 -1 -1 -1 -1 -1 -1 -1 -1 -1 -1 -1 -1 -1 -1 -1 -1 -1 -1 -1 -1
$$ -1 -1 -1 -1 -1 -1 -1 -1 -1 -1 -1 -1 -1 -1 -1 -1 -1 -1 -1 -1 -1 -1 -1 -1
$$ -1 -1 -1 -1 -1 -1 -1 -1 -1 -1 -1 -1 -1 -1 -1 -1 -1 -1 -1 -1 -1 -1 -1 -1
$$ -1 -1 -1 -1 -1 -1 -1 -1 -1 -1 -1 -1 -1 -1 -1 -1 -1 -1 -1 -1 -1 -1 -1 -1
$$ -1 -1 -1 -1 -1 -1 -1 -1 -1 -1 -1 -1 -1 -1 -1 -1 -1 -1 -1 -1 -1 -1 -1 -1
$$ -1 -1 -1 -1 -1 -1 -1 -1 -1 -1 -1 -1 -1 -1 -1 -1 -1 -1 -1 -1 -1 -1 -1 -1
$$ -1 -1 -1 -1 -1 -1 -1 -1 -1 -1 -1 -1 -1 -1 -1 -1
$$ ##$RG_tab8= (0..255)
$$ -1 -1 -1 -1 -1 -1 -1 -1 -1 -1 -1 -1 -1 -1 -1 -1 -1 -1 -1 -1 -1 -1 -1 -1
$$ -1 -1 -1 -1 -1 -1 -1 -1 -1 -1 -1 -1 -1 -1 -1 -1 -1 -1 -1 -1 -1 -1 -1 -1
$$ -1 -1 -1 -1 -1 -1 -1 -1 -1 -1 -1 -1 -1 -1 -1 -1 -1 -1 -1 -1 -1 -1 -1 -1
$$ -1 -1 -1 -1 -1 -1 -1 -1 -1 -1 -1 -1 -1 -1 -1 -1 -1 -1 -1 -1 -1 -1 -1 -1
$$ -1 -1 -1 -1 -1 -1 -1 -1 -1 -1 -1 -1 -1 -1 -1 -1 -1 -1 -1 -1 -1 -1 -1 -1
$$ -1 -1 -1 -1 -1 -1 -1 -1 -1 -1 -1 -1 -1 -1 -1 -1 -1 -1 -1 -1 -1 -1 -1 -1
$$ -1 -1 -1 -1 -1 -1 -1 -1 -1 -1 -1 -1 -1 -1 -1 -1 -1 -1 -1 -1 -1 -1 -1 -1
$$ -1 -1 -1 -1 -1 -1 -1 -1 -1 -1 -1 -1 -1 -1 -1 -1 -1 -1 -1 -1 -1 -1 -1 -1
$$ -1 -1 -1 -1 -1 -1 -1 -1 -1 -1 -1 -1 -1 -1 -1 -1 -1 -1 -1 -1 -1 -1 -1 -1
$$ -1 -1 -1 -1 -1 -1 -1 -1 -1 -1 -1 -1 -1 -1 -1 -1 -1 -1 -1 -1 -1 -1 -1 -1
$$ -1 -1 -1 -1 -1 -1 -1 -1 -1 -1 -1 -1 -1 -1 -1 -1
$$ ##$RG_tabA= (0..255)
$$ 0.25 0.28 0.32 0.35 0.4 0.44 0.5 0.56 0.64 0.7 0.8 0.89 1 1.12 1.28 1.4
$$ 1.6 1.78 2 2.25 2.56 2.8 3.2 3.56 4 4.5 5 5.6 6.35 7.12 8 9 10 11.3 12.7
$$ 14.2 16 18 20.2 22.6 25.4 28.5 32 36 40.3 45.2 50.8 57 64 71.8 80.6 90.5
$$ 101 114 128 144 161 181 203 228 256 287 322 362 406 456 512 575 645 724
$$ 812 912 1030 1150 1290 1440 1620 1820 2050 -1 -1 -1 -1 -1 -1 -1 -1 -1 -1
$$ -1 -1 -1 -1 -1 -1 -1 -1 -1 -1 -1 -1 -1 -1 -1 -1 -1 -1 -1 -1 -1 -1 -1 -1
$$ -1 -1 -1 -1 -1 -1 -1 -1 -1 -1 -1 -1 -1 -1 -1 -1 -1 -1 -1 -1 -1 -1 -1 -1
$$ -1 -1 -1 -1 -1 -1 -1 -1 -1 -1 -1 -1 -1 -1 -1 -1 -1 -1 -1 -1 -1 -1 -1 -1
$$ -1 -1 -1 -1 -1 -1 -1 -1 -1 -1 -1 -1 -1 -1 -1 -1 -1 -1 -1 -1 -1 -1 -1 -1
$$ -1 -1 -1 -1 -1 -1 -1 -1 -1 -1 -1 -1 -1 -1 -1 -1 -1 -1 -1 -1 -1 -1 -1 -1
$$ -1 -1 -1 -1 -1 -1 -1 -1 -1 -1 -1 -1 -1 -1 -1 -1 -1 -1 -1 -1 -1 -1 -1 -1
$$ -1 -1 -1 -1 -1 -1 -1 -1 -1 -1 -1 -1 -1 -1 -1 -1 -1 -1 -1 -1 -1 -1 -1
$$ ##$ROBOTTY= <no>
$$ ##$ROUT14= (0..7)
$$ 0 0 0 0 0 0 0 0
$$ ##$ROUTER= -1
$$ ##$RX22TY= <no>
$$ ##$RXFMAX= (0..7)
$$ 647.5 -1 -1 -1 -1 -1 -1 -1
$$ ##$RXFMIN= (0..7)
$$ 5 -1 -1 -1 -1 -1 -1 -1
$$ ##$RXINTLV= (0..7)
$$ 1 0 0 0 0 0 0 0
$$ ##$RXMSTY= <no>
$$ ##$RockSwitchEth= <no>
$$ ##$SCMTY= <no>
$$ ##$SGUC1= (0..15)
$$ 33 34 17 0 0 0 0 0 0 0 0 0 0 0 0 0
$$ ##$SGUC2= (0..15)
$$ 18 256 36 0 0 0 0 0 0 0 0 0 0 0 0 0
$$ ##$SLCBCONF= <SHNV>
$$ ##$SPECTR= 10
$$ ##$SY2FLAG= 0
$$ ##$SYNCTRIG= 11
$$ ##$SamChgEth= (0..3)
$$ <149.236.99.249> <no> <no> <no>
$$ ##$Sgu1PowerLevels= (0..7)
$$ 0 0 0 0 0 0 0 0
$$ ##$Sgu2PowerLevels= (0..7)
$$ 0 0 0 0 0 0 0 0
$$ ##$Sgu3PowerLevels= (0..7)
$$ 0 0 0 0 0 0 0 0
$$ ##$Sgu4PowerLevels= (0..7)
$$ 0 0 0 0 0 0 0 0
$$ ##$Sgu5PowerLevels= (0..7)
$$ 0 0 0 0 0 0 0 0
$$ ##$Sgu6PowerLevels= (0..7)
$$ 0 0 0 0 0 0 0 0
$$ ##$Sgu7PowerLevels= (0..7)
$$ 0 0 0 0 0 0 0 0
$$ ##$Sgu8PowerLevels= (0..7)
$$ 0 0 0 0 0 0 0 0
$$ ##$SguType= 2
$$ ##$ShimMaxVal= 32760
$$ ##$ShimPow1Ch2Sh= (0..38)
$$ 0 0 0 0 0 0 0 0 0 0 0 0 0 0 0 0 0 0 0 0 0 0 0 0 0 0 0 0 0 0 0 0 0 0 0 0
$$ 0 0 0
$$ ##$ShimPow1Imax= (0..38)
$$ 0 0 0 0 0 0 0 0 0 0 0 0 0 0 0 0 0 0 0 0 0 0 0 0 0 0 0 0 0 0 0 0 0 0 0 0
$$ 0 0 0
$$ ##$ShimPow1NChan= 0
$$ ##$ShimPow1TotIMax= 0
$$ ##$ShimPow1Vmax= (0..38)
$$ 0 0 0 0 0 0 0 0 0 0 0 0 0 0 0 0 0 0 0 0 0 0 0 0 0 0 0 0 0 0 0 0 0 0 0 0
$$ 0 0 0
$$ ##$ShimPow2Ch2Sh= (0..38)
$$ 0 0 0 0 0 0 0 0 0 0 0 0 0 0 0 0 0 0 0 0 0 0 0 0 0 0 0 0 0 0 0 0 0 0 0 0
$$ 0 0 0
$$ ##$ShimPow2Imax= (0..38)
$$ 0 0 0 0 0 0 0 0 0 0 0 0 0 0 0 0 0 0 0 0 0 0 0 0 0 0 0 0 0 0 0 0 0 0 0 0
$$ 0 0 0
$$ ##$ShimPow2NChan= 0
$$ ##$ShimPow2TotIMax= 0
$$ ##$ShimPow2Vmax= (0..38)
$$ 0 0 0 0 0 0 0 0 0 0 0 0 0 0 0 0 0 0 0 0 0 0 0 0 0 0 0 0 0 0 0 0 0 0 0 0
$$ 0 0 0
$$ ##$ShimPow3Ch2Sh= (0..38)
$$ 0 0 0 0 0 0 0 0 0 0 0 0 0 0 0 0 0 0 0 0 0 0 0 0 0 0 0 0 0 0 0 0 0 0 0 0
$$ 0 0 0
$$ ##$ShimPow3Imax= (0..38)
$$ 0 0 0 0 0 0 0 0 0 0 0 0 0 0 0 0 0 0 0 0 0 0 0 0 0 0 0 0 0 0 0 0 0 0 0 0
$$ 0 0 0
$$ ##$ShimPow3NChan= 0
$$ ##$ShimPow3TotIMax= 0
$$ ##$ShimPow3Vmax= (0..38)
$$ 0 0 0 0 0 0 0 0 0 0 0 0 0 0 0 0 0 0 0 0 0 0 0 0 0 0 0 0 0 0 0 0 0 0 0 0
$$ 0 0 0
$$ ##$ShimPow4Ch2Sh= (0..38)
$$ 0 0 0 0 0 0 0 0 0 0 0 0 0 0 0 0 0 0 0 0 0 0 0 0 0 0 0 0 0 0 0 0 0 0 0 0
$$ 0 0 0
$$ ##$ShimPow4Imax= (0..38)
$$ 0 0 0 0 0 0 0 0 0 0 0 0 0 0 0 0 0 0 0 0 0 0 0 0 0 0 0 0 0 0 0 0 0 0 0 0
$$ 0 0 0
$$ ##$ShimPow4NChan= 0
$$ ##$ShimPow4TotIMax= 0
$$ ##$ShimPow4Vmax= (0..38)
$$ 0 0 0 0 0 0 0 0 0 0 0 0 0 0 0 0 0 0 0 0 0 0 0 0 0 0 0 0 0 0 0 0 0 0 0 0
$$ 0 0 0
$$ ##$ShimPowMaxUA= (0..63)
$$ 130000 130000 130000 130000 130000 130000 130000 130000 130000 130000 130000
$$ 130000 130000 130000 130000 130000 130000 130000 130000 130000 130000 130000
$$ 130000 130000 130000 130000 130000 130000 130000 130000 130000 130000 130000
$$ 130000 130000 130000 130000 130000 130000 130000 0 0 0 0 0 0 0 0 0 0 0
$$ 0 0 0 0 0 0 0 0 0 0 0 0 0
$$ ##$ShimPowMaxUC= (0..63)
$$ 130000 130000 130000 130000 130000 130000 130000 130000 130000 130000 130000
$$ 130000 130000 130000 130000 130000 130000 130000 130000 130000 130000 130000
$$ 130000 130000 130000 130000 130000 130000 130000 130000 130000 130000 130000
$$ 130000 130000 130000 130000 130000 130000 130000 0 0 0 0 0 0 0 0 0 0 0
$$ 0 0 0 0 0 0 0 0 0 0 0 0 0
$$ ##$ShimPowMaxUG= (0..63)
$$ 524287 524287 524287 524287 524287 524287 524287 524287 524287 524287 524287
$$ 524287 524287 524287 524287 524287 524287 524287 524287 524287 524287 524287
$$ 524287 524287 524287 524287 524287 524287 524287 524287 524287 524287 524287
$$ 524287 524287 524287 524287 524287 524287 0 0 0 0 0 0 0 0 0 0 0 0 0 0 0
$$ 0 0 0 0 0 0 0 0 0 0
$$ ##$ShimPowNum= 0
$$ ##$ShimPowRcbType= 3
$$ ##$ShimPowRes= (0..63)
$$ 1e-020 1e-020 1e-020 1e-020 1e-020 1e-020 1e-020 1e-020 1e-020 1e-020 1e-020
$$ 1e-020 1e-020 1e-020 1e-020 1e-020 1e-020 1e-020 1e-020 1e-020 1e-020 1e-020
$$ 1e-020 1e-020 1e-020 1e-020 1e-020 1e-020 1e-020 1e-020 1e-020 1e-020 1e-020
$$ 1e-020 1e-020 1e-020 1e-020 1e-020 1e-020 1e-020 0 0 0 0 0 0 0 0 0 0 0
$$ 0 0 0 0 0 0 0 0 0 0 0 0 0
$$ ##$ShimPowRng0= (0..63)
$$ 1 1 1 1 1 1 1 1 1 1 1 1 1 1 1 1 1 1 1 1 1 1 1 1 1 1 1 1 1 1 1 1 1 1 1 1
$$ 1 1 1 1 0 0 0 0 0 0 0 0 0 0 0 0 0 0 0 0 0 0 0 0 0 0 0 0
$$ ##$ShimPowRng1= (0..63)
$$ 1 1 1 1 1 1 1 1 1 1 1 1 1 1 1 1 1 1 1 1 1 1 1 1 1 1 1 1 1 1 1 1 1 1 1 1
$$ 1 1 1 1 0 0 0 0 0 0 0 0 0 0 0 0 0 0 0 0 0 0 0 0 0 0 0 0
$$ ##$ShimPowRng2= (0..63)
$$ 1 1 1 1 1 1 1 1 1 1 1 1 1 1 1 1 1 1 1 1 1 1 1 1 1 1 1 1 1 1 1 1 1 1 1 1
$$ 1 1 1 1 0 0 0 0 0 0 0 0 0 0 0 0 0 0 0 0 0 0 0 0 0 0 0 0
$$ ##$ShimPowRng3= (0..63)
$$ 1 1 1 1 1 1 1 1 1 1 1 1 1 1 1 1 1 1 1 1 1 1 1 1 1 1 1 1 1 1 1 1 1 1 1 1
$$ 1 1 1 1 0 0 0 0 0 0 0 0 0 0 0 0 0 0 0 0 0 0 0 0 0 0 0 0
$$ ##$ShimPowType1= 0
$$ ##$ShimPowType2= 0
$$ ##$ShimPowType3= 0
$$ ##$ShimPowType4= 0
$$ ##$ShimSysFunc= (0..63)
$$ 1 2 3 4 5 6 7 8 9 10 0 37 38 35 16 15 14 13 12 11 28 27 26 25 24 23 36
$$ 22 30 29 20 21 34 33 32 31 17 18 19 0 0 0 0 0 0 0 0 0 0 0 0 0 0 0 0 0 0
$$ 0 0 0 0 0 0 0
$$ ##$ShimSysMatId= <no>
$$ ##$ShimSysMatrix= 1
$$ ##$ShimSysType= 4
$$ ##$ShimUnit= 0
$$ ##$TFXNUM= 0
$$ ##$TOSITY= <no>
$$ ##$TRIPLO2= 0
$$ ##$VTU= 2
$$ ##$VTUETH= <149.236.99.20>
$$ ##$VTUTY= <no>
$$ ##$WBREFAM= (0..15)
$$ 100 100 100 100 100 100 100 100 100 100 100 100 100 100 100 100
$$ ##$WBREFLM= (0..15)
$$ 0 0 0 0 0 0 0 0 0 0 0 0 0 0 0 0
$$ ##$WBREFPH= (0..15)
$$ 0 0 0 0 0 0 0 0 0 0 0 0 0 0 0 0
$$ ##$WBSGU= (0..15)
$$ 0 0 0 0 0 0 0 0 0 0 0 0 0 0 0 0
$$ ##$XFAC= 2
$$ ##END=
##$RELAX= 
$$ Bruker specific parameters
$$ --------------------------
##$DATPATH= <D:/Users/Homeoffice/Seafile/chemikalienlager>
##$EXPNO= 2
##$NAME= <2-brombutan_78-76-2>
##$PROCNO= 1
##$ACQT0= -2.41596638655462
##$AMP= (0..31)
100 100 100 100 100 100 100 100 100 100 100 100 100 100 100 100 100 100
100 100 100 100 100 100 100 100 100 100 100 100 100 100
##$AMPCOIL= (0..32)
0 0 0 0 0 0 0 0 0 0 0 0 0 0 0 0 0 0 0 0 0 0 0 0 0 0 0 0 0 0 0 0 0
##$AQSEQ= 0
##$AQ_mod= 3
##$AUNM= <au_zg>
##$AUTOPOS= <9 >
##$BF1= 150.902809
##$BF2= 600.13
##$BF3= 150.902809
##$BF4= 150.902809
##$BF5= 150.902809
##$BF6= 150.902809
##$BF7= 150.902809
##$BF8= 150.902809
##$BWFAC= (0..63)
0 0 0 0 0 0 0 0 0 0 0 0 0 0 0 0 0 0 0 0 0 0 0 0 0 0 0 0 0 0 0 0 0 0 0 0
0 0 0 0 0 0 0 0 0 0 0 0 0 0 0 0 0 0 0 0 0 0 0 0 0 0 0 0
##$BYTORDA= 0
##$CHANFCU= (0..24)
0 0 0 0 0 0 0 0 0 0 0 0 0 0 0 0 0 0 0 0 0 0 0 0 0
##$CHANREC= (0..24)
0 0 0 0 0 0 0 0 0 0 0 0 0 0 0 0 0 0 0 0 0 0 0 0 0
##$CHEMSTR= <none>
##$CNST= (0..63)
1 1 145 1 1 1 1 1 1 1 1 1 1 1 1 1 1 1 1 1 1 1 1 1 1 1 1 1 1 1 1 1 1 1 1
1 1 1 1 1 1 1 1 1 1 1 1 1 1 1 1 1 1 1 1 1 1 1 1 1 1 1 1 1
##$CPDPRG= (0..8)
<> <> <waltz16> <> <mlev16> <mlev16> <mlev16> <mlev16> <mlev16>
##$D= (0..63)
0 0.8 0 0 0 0 0 0 0 0 0 0.03 0 0 0 0 0.0002 0 0 0 0 0 0 0 0 0 0 0 0 0 0
0 0 0 0 0 0 0 0 0 0 0 0 0 0 0 0 0 0 0 0 0 0 0 0 0 0 0 0 0 0 0 0 0
##$DATE= 1456540799
##$DATE_START= 0
##$DE= 18
##$DECBNUC= <off>
##$DECIM= 512
##$DECNUC= <off>
##$DECSTAT= 4
##$DIGMOD= 1
##$DIGTYP= 12
##$DR= 21
##$DS= 4
##$DSPFIRM= 0
##$DSPFVS= 20
##$DTYPA= 0
##$EXP= <c13.tci>
##$ExpStatus= 0
##$FCUCHAN= (0..9)
0 1 2 0 0 0 0 0 0 0
##$FILCOR= 0
##$FL1= 83
##$FL2= 83
##$FL3= 83
##$FL4= 83
##$FN_INDIRECT= (0..7)
0 0 0 0 0 0 0 0
##$FOV= 20
##$FQ1LIST= <freqlist>
##$FQ2LIST= <freqlist>
##$FQ3LIST= <freqlist>
##$FQ4LIST= <freqlist>
##$FQ5LIST= <freqlist>
##$FQ6LIST= <freqlist>
##$FQ7LIST= <freqlist>
##$FQ8LIST= <freqlist>
##$FS= (0..7)
83 83 83 83 83 83 83 83
##$FTLPGN= 0
##$FW= 250000
##$FnILOOP= 0
##$FnMODE= 0
##$FnTYPE= 0
##$GPNAM= (0..31)
<SMSQ10.100> <SMSQ10.100> <SMSQ10.100> <SMSQ10.100> <SMSQ10.100> <SMSQ10.100>
<SMSQ10.100> <SMSQ10.100> <SMSQ10.100> <SMSQ10.100> <SMSQ10.100> <SMSQ10.100>
<SMSQ10.100> <SMSQ10.100> <SMSQ10.100> <SMSQ10.100> <SMSQ10.100> <SMSQ10.100>
<SMSQ10.100> <SMSQ10.100> <SMSQ10.100> <SMSQ10.100> <SMSQ10.100> <SMSQ10.100>
<SMSQ10.100> <SMSQ10.100> <SMSQ10.100> <SMSQ10.100> <SMSQ10.100> <SMSQ10.100>
<SMSQ10.100> <SMSQ10.100>
##$GPX= (0..31)
0 0 0 0 0 0 0 0 0 0 0 0 0 0 0 0 0 0 0 0 0 0 0 0 0 0 0 0 0 0 0 0
##$GPY= (0..31)
0 0 0 0 0 0 0 0 0 0 0 0 0 0 0 0 0 0 0 0 0 0 0 0 0 0 0 0 0 0 0 0
##$GPZ= (0..31)
0 0 0 0 0 0 0 0 0 0 0 0 0 0 0 0 0 0 0 0 0 0 0 0 0 0 0 0 0 0 0 0
##$GRPDLY= 67.983642578125
##$HDDUTY= 20
##$HDRATE= 1
##$HGAIN= (0..3)
0 0 0 0
##$HL1= 3
##$HL2= 83
##$HL3= 83
##$HL4= 83
##$HOLDER= 9
##$HPMOD= (0..32)
0 0 0 0 0 0 0 0 0 0 0 0 0 0 0 0 0 0 0 0 0 0 0 0 0 0 0 0 0 0 0 0 0
##$HPPRGN= 0
##$IN= (0..63)
0 0 0 0 0 0 0 0 0 0 0 0 0 0 0 0 0 0 0 0 0 0 0 0 0 0 0 0 0 0 0 0 0 0 0 0
0 0 0 0 0 0 0 0 0 0 0 0 0 0 0 0 0 0 0 0 0 0 0 0 0 0 0 0
##$INF= (0..7)
0 0 0 0 0 0 0 0
##$INP= (0..63)
0 0 0 0 0 0 0 0 0 0 0 0 0 0 0 0 0 0 0 0 0 0 0 0 0 0 0 0 0 0 0 0 0 0 0 0
0 0 0 0 0 0 0 0 0 0 0 0 0 0 0 0 0 0 0 0 0 0 0 0 0 0 0 0
##$INSTRUM= <spect>
##$INTEGFAC= (0..63)
0 0 0 0 0 0 0 0 0 0 0 0 0 0 0 0 0 0 0 0 0 0 0 0 0 0 0 0 0 0 0 0 0 0 0 0
0 0 0 0 0 0 0 0 0 0 0 0 0 0 0 0 0 0 0 0 0 0 0 0 0 0 0 0
##$L= (0..31)
1 1 1 1 1 1 1 1 1 1 1 1 1 1 1 1 1 1 1 1 1 1 1 1 1 1 1 1 1 1 1 1
##$LFILTER= 100
##$LGAIN= -12
##$LINPSTP= 0
##$LOCKED= yes
##$LOCKFLD= -5839
##$LOCKGN= 113.001403808594
##$LOCKPOW= -30
##$LOCKPPM= 7.23999977111816
##$LOCNUC= <2H>
##$LOCPHAS= 199.263
##$LOCSHFT= yes
##$LOCSW= 0
##$LTIME= 0.400000005960464
##$MASR= 4200
##$MULEXPNO= (0..15)
0 0 0 0 0 0 0 0 0 0 0 0 0 0 0 0
##$NBL= 1
##$NC= -5
##$NLOGCH= 1
##$NOVFLW= 0
##$NS= 256
##$NUC1= <13C>
##$NUC2= <1H>
##$NUC3= <off>
##$NUC4= <off>
##$NUC5= <off>
##$NUC6= <off>
##$NUC7= <off>
##$NUC8= <off>
##$NUCLEUS= <off>
##$NUSLIST= <automatic>
##$NusAMOUNT= 25
##$NusFPNZ= no
##$NusJSP= 0
##$NusSEED= 54321
##$NusSPTYPE= 0
##$NusT2= 1
##$NusTD= 0
##$O1= 16599.30899
##$O2= 2400.52000003743
##$O3= 15089.0958591106
##$O4= 15089.0958591106
##$O5= 15089.0958591106
##$O6= 15089.0958591106
##$O7= 15089.0958591106
##$O8= 15089.0958591106
##$OVERFLW= 0
##$P= (0..63)
11.5 11.5 23 7.5 15 16.5 25 50 350 25 50 40000 40000 2000 0 0 1000 2000
500 600 2500 0 0 0 1000 0 500 11.5 0 2000 0 0 3700 0 0 0 80000 0 0 1700
4000 0 0 10000 740 0 40000 1050 2000 0 0 0 0 0 0 0 0 0 0 0 0 0 0 1400
##$PACOIL= (0..32)
1 4 3 2 0 0 0 0 0 0 0 0 0 0 0 0 0 0 0 0 0 0 0 0 0 0 0 0 0 0 0 0 0
##$PAPS= 2
##$PARMODE= 0
##$PCPD= (0..9)
100 60 70 100 100 100 100 100 100 100
##$PEXSEL= (0..9)
1 1 1 1 1 1 1 1 1 1
##$PHCOR= (0..31)
0 0 0 0 0 0 0 0 0 0 0 0 0 0 0 0 0 0 0 0 0 0 0 0 0 0 0 0 0 0 0 0
##$PHLIST= <>
##$PH_ref= 0
##$PL= (0..63)
120 120 120 120 120 120 120 120 120 120 120 120 120 120 120 120 120 120
120 120 120 120 120 120 120 120 120 120 120 120 120 120 120 120 120 120
120 120 120 120 120 120 120 120 120 120 120 120 120 120 120 120 120 120
120 120 120 120 120 120 120 120 120 120
##$PLSTEP= 0.1
##$PLSTRT= -6
##$PLW= (0..63)
0 75 6.4 0 0 0 0 0 0 0 15.87 0.6348 0.073469 0.036955 0 0.576 0 0 75 2.7552
0 3.6e-06 0 0 0.0002304 0 0.018367 0 0 15.87 0.073469 0.29388 0 0 0 0 0
0 0 0 0 0 0 0 0 0 0 0 0 0 0 0 0 0 0 0 0 0 0 0 0 0 0 0
##$PLWMAX= (0..7)
318.868 63.3064 0 0 0 0 0 0
##$PQPHASE= 0
##$PQSCALE= 1
##$PR= 4
##$PRECHAN= (0..32)
-1 3 0 5 4 -1 -1 -1 -1 -1 -1 -1 -1 -1 -1 -1 -1 -1 -1 -1 -1 -1 -1 -1 -1
-1 -1 -1 -1 -1 -1 -1 -1
##$PROBHD= <Z75812_0080 (CP TCI 600S3 H-C/N-D-05 Z)>
##$PROBINPUTS= (0..15)
<> <> <> <> <> <> <> <> <> <> <> <> <> <> <> <>
##$PULPROG= <zgpg30>
##$PW= 0
##$PYNM= <acqu.py>
##$ProjAngle= 0
##$QNP= 1
##$RECCHAN= (0..9)
0 1 0 0 0 0 0 0 0 0
##$RECPH= 0
##$RECPRE= (0..24)
-1 3 -1 -1 -1 -1 -1 -1 -1 -1 -1 -1 -1 -1 -1 -1 -1 -1 -1 -1 -1 -1 -1 -1
-1
##$RECPRFX= (0..32)
-1 -1 -1 -1 -1 -1 -1 -1 -1 -1 -1 -1 -1 -1 -1 -1 -1 -1 -1 -1 -1 -1 -1 -1
-1 -1 -1 -1 -1 -1 -1 -1 -1
##$RECSEL= (0..24)
0 1 0 0 0 0 0 0 0 0 0 0 0 0 0 0 0 0 0 0 0 0 0 0 0
##$RG= 1440
##$RO= 20
##$RSEL= (0..24)
0 1 2 0 0 0 0 0 0 0 0 0 0 0 0 0 0 0 0 0 0 0 0 0 0
##$SAMPLEID= <>
##$SELREC= (0..24)
0 0 0 0 0 0 0 0 0 0 0 0 0 0 0 0 0 0 0 0 0 0 0 0 0
##$SFO1= 150.91940830899
##$SFO2= 600.13240052
##$SFO3= 150.917898095859
##$SFO4= 150.917898095859
##$SFO5= 150.917898095859
##$SFO6= 150.917898095859
##$SFO7= 150.917898095859
##$SFO8= 150.917898095859
##$SOLVENT= <CDCl3>
##$SOLVOLD= <off>
##$SP= (0..63)
120 120 120 120 120 120 120 120 120 120 120 120 120 120 120 120 120 120
120 120 120 120 120 120 120 120 120 120 120 120 120 120 120 120 120 120
120 120 120 120 120 120 120 120 120 120 120 120 120 120 120 120 120 120
120 120 120 120 120 120 120 120 120 120
##$SPECTR= 0
##$SPINCNT= 0
##$SPNAM= (0..63)
<> <Q5.1000> <Q3_surbop.1> <0.0> <Eburp2tr.1000> <Crp60comp.4> <Crp60,0.5,20.1>
<Sinc1.1000> <Crp60,0.5,20.1> <> <Crp60comp.4> <Crp60comp.4> <> <> <Eburp2.1000>
<> <> <> <0.0> <Q5tr_sebop.1> <Q5tr_sebop.1> <Q5tr_sebop.1> <Q5tr_sebop.1>
<> <> <> <Gaus1_180r.1000> <> <> <Q5tr.1000> <Q3_surbop.1> <Reburp.1000>
<Q3.1000> <> <Q3_surbop.1> <Q3_surbop.1> <Q5.1000> <> <> <> <> <> <> <>
<> <> <> <> <> <> <> <> <> <> <> <> <> <> <> <> <> <> <> <>
##$SPOAL= (0..63)
0.5 1 0.5 0.5 0 0.5 0.5 0.5 0.5 0.5 0.5 0.5 0.5 0.5 1 0.5 0.5 0.5 0.5 0
0 0 0 0.5 0.5 0.5 0.5 0.5 0.5 0 0.5 0.5 0.5 0.5 0.5 0.5 1 0.5 0.5 0.5 0.5
0.5 0.5 0.5 0.5 0.5 0.5 0.5 0.5 0.5 0.5 0.5 0.5 0.5 0.5 0.5 0.5 0.5 0.5
0.5 0.5 0.5 0.5 0.5
##$SPOFFS= (0..63)
0 0 0 0 0 0 0 0 0 0 0 0 0 0 0 0 0 0 0 0 0 0 0 0 0 0 0 0 0 0 0 0 0 0 0 0
0 0 0 0 0 0 0 0 0 0 0 0 0 0 0 0 0 0 0 0 0 0 0 0 0 0 0 0
##$SPPEX= (0..63)
0 0 0 0 0 0 0 0 0 0 0 0 0 0 0 0 0 0 0 0 0 0 0 0 0 0 0 0 0 0 0 0 0 0 0 0
0 0 0 0 0 0 0 0 0 0 0 0 0 0 0 0 0 0 0 0 0 0 0 0 0 0 0 0
##$SPW= (0..63)
0 0.0020863 0.0017082 0 0.033444 15.155 0 0.0010381 15.155 0 15.155 15.155
0 0 0.033444 0 0 0 0 29.5321 45.90669 21.43517 115.5981 0 0 0 1.3282e-06
0 0 0.24384 4.991 0.11534 0.00062756 0 2.479 0.0017082 0.83454 0 0 0 0
0 0 0 0 0 0 0 0 0 0 0 0 0 0 0 0 0 0 0 0 0 0 0
##$SUBNAM= (0..9)
<> <> <> <> <> <> <> <> <> <>
##$SW= 258.830195782534
##$SWIBOX= (0..32)
0 1 2 0 0 0 0 0 0 0 0 0 0 0 0 0 0 0 0 0 0 0 0 0 0 0 0 0 0 0 0 0 0
##$SW_h= 39062.5
##$SWfinal= 0
##$SigLockShift= 0
##$TD= 65536
##$TD0= 1
##$TD_INDIRECT= (0..7)
0 0 0 0 0 0 0 0
##$TDav= 1
##$TE= 293.9996
##$TE1= 293.9996
##$TE2= 0
##$TE3= 0
##$TE4= 0
##$TEG= 300
##$TE_MAGNET= 0
##$TE_PIDX= 1
##$TE_RAW= 300
##$TE_STAB= (0..9)
2 2 0 0 0 0 0 0 0 0
##$TOTROT= (0..63)
0 0 0 0 0 0 0 0 0 0 0 0 0 0 0 0 0 0 0 0 0 0 0 0 0 0 0 0 0 0 0 0 0 0 0 0
0 0 0 0 0 0 0 0 0 0 0 0 0 0 0 0 0 0 0 0 0 0 0 0 0 0 0 0
##$TUBE_TYPE= <>
##$USERA1= <>
##$USERA2= <>
##$USERA3= <>
##$USERA4= <>
##$USERA5= <>
##$UUID= <>
##$V9= 5
##$VALIDCODE= -1
##$VALIST= <>
##$VCLIST= <>
##$VDLIST= <>
##$VPLIST= <>
##$VTLIST= <>
##$WBST= 1024
##$WBSW= (0..7)
4 10 10 10 10 10 10 10
##$XGAIN= (0..3)
0 0 0 0
##$XL= 0
##$YL= 0
##$YMAX_a= 1980031
##$YMIN_a= -2143671
##$ZGOPTNS= <>
##$ZL1= 120
##$ZL2= 120
##$ZL3= 120
##$ZL4= 120
##$scaledByNS= no
##$scaledByRG= no
##$shimCoilTempK= 300
##$ABSF1= 239.4293
##$ABSF2= -19.42937
##$ABSG= 5
##$ABSL= 3
##$ALPHA= 0
##$AQORDER= 0
##$ASSFAC= 0
##$ASSFACI= 0
##$ASSFACX= 0
##$ASSWID= 0
##$AUNMP= <proc_1d>
##$AXLEFT= 0
##$AXNAME= <>
##$AXNUC= <13C>
##$AXRIGHT= 0
##$AXTYPE= 0
##$AXUNIT= <>
##$AZFE= 0.1
##$AZFW= 0.5
##$BCFW= 0
##$BC_mod= 0
##$BYTORDP= 0
##$COROFFS= 0
##$CY= 15
##$DATMOD= 1
##$DC= 0
##$DFILT= <>
##$DTYPP= 0
##$ERETIC= no
##$F1P= 0
##$F2P= 0
##$FCOR= 1
##$FTSIZE= 32768
##$FT_mod= 6
##$GAMMA= 0
##$GB= 0
##$INTBC= 1
##$INTSCL= 1
##$ISEN= 30
##$LB= 1
##$LEV0= 0
##$LPBIN= 0
##$MAXI= 10000
##$MC2= 0
##$MEAN= 0
##$ME_mod= 0
##$MI= 0
##$MddCEXP= no
##$MddCT_SP= no
##$MddF180= no
##$MddLAMBDA= 0
##$MddMEMORY= 0
##$MddMERGE= 0
##$MddNCOMP= 0
##$MddNITER= 0
##$MddNOISE= 0
##$MddPHASE= 0
##$MddSEED= 0
##$MddSRSIZE= 0
##$Mdd_CsALG= 0
##$Mdd_CsLAMBDA= 0
##$Mdd_CsNITER= 0
##$Mdd_CsNORM= 0
##$Mdd_CsVE= no
##$Mdd_CsZF= 0
##$Mdd_LrLAMBDA= 0
##$Mdd_LrNITER= 0
##$Mdd_LrRANK= 0
##$Mdd_LrZF= 0
##$Mdd_mod= 0
##$NCOEF= 0
##$NC_proc= -3
##$NLEV= 6
##$NOISF1= 0
##$NOISF2= 0
##$NSP= 0
##$NTH_PI= 0
##$NZP= 0
##$OFFSET= 239.4293
##$PC= 1.4
##$PHC0= 228.9039
##$PHC1= -246.6204
##$PH_mod= 1
##$PKNL= yes
##$PPARMOD= 0
##$PPDIAG= 0
##$PPIPTYP= 0
##$PPMPNUM= 2147483647
##$PPRESOL= 1
##$PSCAL= 4
##$PSIGN= 0
##$PYNMP= <proc.py>
##$RDF1= 0
##$RDF2= 0
##$RDFWHM= 0
##$RDINT= 0
##$RDPOS= 0
##$REVERSE= no
##$SF= 150.902809
##$SI= 32768
##$SIGF1= 0
##$SIGF2= 0
##$SINO= 0
##$SIOLD= 32768
##$SPECTYP= <>
##$SREF_mod= 1
##$SREGLST= <13C.CDCl3>
##$SSB= 0
##$STSI= 32768
##$STSR= 0
##$SW_p= 39062.5000000001
##$SYMM= 0
##$S_DEV= 0
##$TDeff= 65536
##$TDoff= 0
##$TI= <>
##$TILT= no
##$TM1= 0
##$TM2= 0
##$TOPLEV= 0
##$USERP1= <>
##$USERP2= <>
##$USERP3= <>
##$USERP4= <>
##$USERP5= <>
##$WDW= 1
##$XDIM= 32768
##$YMAX_p= 313148463
##$YMIN_p= -1481481
##$CURPLOT= <Lexmark C734 PS3>
##$CURPRIN= <$Lexmark C734 PS3>
##$DFORMAT= <normdp>
##$LAYOUT= <+/1D_X.xwp>
##$LFORMAT= <normlp>
##$PFORMAT= <normpl>
$$ End of Bruker specific parameters
$$ ---------------------------------
##NTUPLES= NMR SPECTRUM
##VAR_NAME=  FREQUENCY,     SPECTRUM/REAL,   SPECTRUM/IMAG
##SYMBOL=    X,             R,               I
##VAR_TYPE=  INDEPENDENT,   DEPENDENT,       DEPENDENT
##VAR_FORM=  AFFN,          ASDF,            ASDF
##VAR_DIM=   32768,         32768,           32768
##UNITS=     HZ,            ARBITRARY UNITS, ARBITRARY UNITS
##FACTOR=    1.19209289550782, 1,            1
##FIRST=     39061.3079071046, 134339,       -922860
##LAST=      0,             108026,          297435
##MIN=       0,             -1481481,        0
##MAX=       39061.3079071046, 313148463,    0
$$ Real data points
##PAGE= N=1
##DATA TABLE= (X++(R..R)), XYDATA
32767A34339f5045F803c46146a3345B24191j01676L12892a14157k80143l2303
32757d26603a7718B6377M35005c9995j71739C72895G2351b27691k70984J56949
32747c41726J48885l08924M7322k54556g7898A34391b16660F938a6882B11747
32736c25519P6434k2665N9404l03655h0741H7262L05895A04337K03951o7795B859
32724c00827h2893A2742a04497k9967A17383M7102J11369A07296A6317L91251
32714D07568j48130J7680c52384A60288J44534j24874n9278K20428H2667q797
32704G3870L37228a77927n4161f9132A04532J46942O8367E4232L704b8807j25541
32693a54348A0203a9628A10357K18143b77370G6647K37817E9158g66362f4690
32682a30921A38593j524c27174K99I4085J86240b57881k50349b22790R1331C94616
32670a8651k54545j19915o8716a48403j48776J0461E5257b39307k02450K18615
32660b23142a6719m47688f1675a3619C43118a27315k59567k89700c06352n6255
32650c62607i9144a3732m2059E2521a80584q1949C22546j54877D2499a67462e5022
32638C99844O4975F5501A5505N6734M7900J98325L9831L33737C8287J61083b86049
32626d58795B09478g9318A35616a75151c6323E20005A39954F6568a16359p3898
32616a90257h4963D70896B12778c49500a20260k4801E323d53174J22922o2321
32606c92573E3647J92957j16182J01537a44540B42461C5147d91080b42288R8190
32596a44098m2474k81642b17999A38617o417d60166a66649E49134A57417a63420
32585E41487p9643D3213D013e0174k92137k57370b33387B19190N9842f2440j67498
32574b29938m5729A66297k3370B8281J66501L1695I1134c08789R2365N6187H397
32562C16514J77158j37542N637I9452J26139a41488m38450a71019A09811i076
32551a09760E1595b70832L5882D8495g6035m2976A77292a98538l3637H4483h2519
32539A18891L31721j02073b13284A8913M09458h4155l8161o65788b66303j77706
32529d44009A19165d97589M5015g4071m24317J37886D82693k4319C1633g3972
32518c0718I7553c06336N1506a24903q4386A92823K18018E3019b50568d9896N841
32507d4055p7757j92135A24114c82355a18456l05261k35063a57713I1658c94490
32496a23164B8004K58842H0948g5693m0618p63879c41499n2032c760A88063E971
32484A22416b90624A37380M0701H7494K21807K94773k45870H6919a62779q36F5659
32472C31842A03788D2592J11307p6304J1364E555J65747J72988A06614K3378k1045
32461A08947O48366A89995b864A08351N21600B89367n7609a39327l22148b24137
32450f8230j28135j76197O1135A37512J53461p5653j00602K01256D938d5261j55071
32439b00332f2432a2465C9103L06192F6615Q0976i9370C65399M3175A28635m8791
32428G9844a28994E7644P1327O7818c0343k6250o76492e978k92621B14178a69376
32416B25789b33341l8881A04255l8464l712J92155C9946a61265m20883A4803J41110
32405A55913h9442b9837q44392e081j8824k19875B1406b0490F16318k37727B9636
32393H7809J35614b21196r1319q9310J82362L2292A358M7258M4731C1669r771
32382B1898P93212l97855j06600M3730a01605j15010B60636e16749a38343B2437
32371A84848c72432a68578k44084a38965E3520J83153J29432b12956A24980L4532
32361A59512K16891K44197d43915B0788a61883B44845A14537A3309L86292d73608
32350d26694H5376J40449A06324K22099q4910C053d2009j76012h1543k61977j25464
32339d68984j75106f2079B53568p0863b38748B61289f22530g7572k24368E25744
32328D28748a43238l11126K07171e9078j16372f2027B25740C4312c20810A67887
32317c38044C75939b05478A24756K93320K12381A35042a63469F55150B61503A28632
32306a78397m57929o5228k32961A01137e20088k87672C93469K89873F4028B6393
32295A03149M26435B60330f4908k04261A97698h220j65417j8591Q0650B47485
32284D50199F3719i0852B11871J70583j40382J98442A44934c0195l75349C97794
32273C30651c66739J36001B37680K40842A33646b57053a9794D1584K34502d71685
32262A06583a64857b1916E27381c46698A30836j1167f8445j37510P8601m83607
32252f10961k5065b23278m50415Q7035a60755B51181j7548c54948B73511l306
32242B70205E9120k5223a5933m16168a5098l88848J14826C3732J9448d65047J20291
32231c44756A62326K4375C6008J28529b2476A49342m9801m6949M6235L79324j86337
32220B91814c87033R5953B51372c30771A5837b96502a26823B95969a05912B8874
32209F12038B71303K8068D3339J15131M90015k61550G859O91794C16788b53614
32198G4711M05336a63824l1147k60983b23457n96172c42106b2733l81094J79695
32188b24132k81552q6133f4207C84871A33402L95026p1198d67043F0289b98878
32177a10919B39025a25584j52149A2321N71590i90m70957g4961B20423n2994b5617
32165b33877A43437O8861d14107g4912D10150a7945k56349h8181A09944c3206
32154C24450a84395l49471A00538h226D32807L4518M44929C07654k3984J07741
32144C91411J50853k40850M9657E6116d65683f719a697A00088M24379j57006b92591
32132a41700o2192B15891J55141j46765b9178E8550a27988B10508a48903q9497
32122b38400e0268E10998L19060m02652J16246j49956b89096l54498P7518k33921
32112g99997c09179B13895L29730k61401J21672A87738l3190J32979M30566D445
32101E16197C0356L83891J92270k71449J3148L48392k4499c05181i4766B32996
32090a67198j39204l51818L12431d3782B57450j06476J38990b66094e0118A5815
32079A27855K85799j86782o8324o6856d16381k02058K27904O8851j553J60838
32069a62399n37383K28568J69103A29180g1423A00677a20197k44266A69690b40169
32058h6360C7441a11836C46375M19650b97117m0463j36446N6881E588L93756B7276
32046C39869E1198a34982D07296A45369b34830A26267f0925F32744K67133C25658
32035D38407j6683j54731d17596a86484b2297B09607J97474R5928J67774A7296
32024a64588l63794g4538k55687c5530j1371j4552j04910B03622H3076f3343F78760
32012D06283c50183C9094K48216c56881I9671J5010b87211k00581a70401B71803
32001a5185j83000j44496P2398l97926g6063j85677Q1k39468O6379n0093K8482
31990d56359K23100j05726i5196C69568j52578D1462O27785C3099K17633J72303
31980D23035P546j54129o5704L30816j64556G4713O0085o140D8250b1727A85678
31968E71956b8652C2642K677a07405J7753m59089d9159C0845K9540J63959g0734
31956b48461A56864J71689e7007B52211Q64927A95440j6351b67376B60830J91854
31946D52684M56669D54362L00525a96673k39297J08276k83060K46615I7610N53176
31936F50786J22774C22942l3448H6896b18622L2450C24687a09749o47399b62529
31925a18949l50854j94429K94914e2396j45281B79799b56224m46494L04909J31461
31915b66348B08759C71K27982L94070A01319K68986I052c42051M5614F8484j7201
31904E1283K76517q2236c8138D98820a45819n63383a49979o2435D520M7191a72227
31892e08483h9768D37126K06992B13851B480K37414a83027j92451A28699l0513
31882I8186d09239a85516I0686d7612D7417c6057p45381K57121c6446j03711k41664
31871c81821A31400b63429j68640A86267M22699a61444B09961F6412a05445E8133
31860e8609r0026G4015e18611R1587A9633l422d33533k54924B21037K97724l1762
31849D86999A72859b39911G5272O1536O41181j38743O1269J56677m07988j87921
31839B61283P9260J77739A25755L1164e1822G01J23213K24130n9512d09822B45673
31827C1072R3411J46795I0791h5321j14897m59999J35312a41772m9823j77569
31817c69164l51504J31066a5875q7132K3509n1991c9659m46830a94989n06678
31807g01667a98829m22769b50885B66169j28869J25818n3005q8084K54276b44330
31796e43584l83780M10765O4028D81809B04150K96685P9170B64911h4063n9815
31786a43878K6575l8502J4659k56819A50551a2027k18644B10474M400c29220e971
31774a06615D63697a9355q9221j41087D24988E9868N48017l1138I5532D0385L83931
31763D24316n1167j31093p4372D7587b0941F5657j3545a80294c9383B00455H6859
31751C82340k185j47974a24982m50376a53847a6447B25194m507a65049j31755
31741b96804B94974j05453K18480A38608K44108J17135a46696D8357h5760G21011
31730D74300K07727B30168I0570c09429A10129N97809B53463c851A6724e2106
31719A81286a24140k7917E14818K8714j95618M6883A33818J8367a2405E6906f5157
31707I4492D519O3515E926J54141J49720j31680J17041J11785c9141D92915k5044
31696D67871o1864J44939j24994C8414L88386b66174g7194B80248A12692d05214
31685e03709b13735B73768f3663j76498o1800N9837O7976B5212a28016A16584
31674D48492c5954D28615A32768a8468C22476K62052B83369n5054K44283j0449
31664D62149j99801p924L1639n9952a37119H1186a23122D89931K354I6119c20778
31652F3910L40830e39834a70918k64571k89370J62649h0924K3974k33658l6340
31642c26948A30696J32054c22297a50192C54263c11678J25166A71430K24148j35418
31632B60160n2108K12226A72376J91769a92721B02631K42655K940C137O1453M88943
31621E53533d42553M4329J41257A52689O3349K63558j59568h451j77180A19938
31610H89342N8940h3115A89979K90622H3379P7801b92390B91411A13017b73983
31599B84301D2230c05619k02017b22473B01323N54085C08922J34233e18503l57266
31589h75769C18368j15075K65753a7654E89156K43893K08155l69391j41778A60949
31578c29751R1524L4759C36375c68241E52781j52180A39599e2855A9316a62115
31567a84369O4356e4669P184a0338A44064R5983K94693j00416m2128e11012A25776
31555i3304H5394d18088I5334d78011K37239A58043J49420e3991k94632A84218
31544B48025o2763L40223B07792E0783h1540C80545j17057h1732F5909b14232
31533A42017Q3773n3002N87661l78974q5754I1777K59596d42103D3171K31892
31523B75063J82671B27046r0264C5794J64998G3183a60080D59004J24741j92870
31513C90875A12165J24996d14222a85461f9582k64377o8275l07969a53226J5522
31503a37704e0653m95173J58336e2847B74437J07627K0292L62607k25138C4411
31492C64954g5382l86755C84995A47928L89716j62859A21423J65987j29420A2554
31481D60276F7373A3359K19330A6053K91247j8179p239L14169D3453f12833A1298
31469C0325A1026a03052A36098E0445L40108K37561a13819H6611O9799f96284
31458b93471G2172e7714G82b62096E79974A61318c01664q3438J55447A11691J99162
31447C10853H6552J33074M7384G5977M27218a18928G9168A0670J43329J59404
31437C13403j9930h7588E7784J95461J44394K65123a41463j68316B4001d05907
31426C96566A83274J54243n6908A14253i1747L0131m1471J5840A0867K40217k3491
31415B27593Q2837J60814M9640M3862A56923c1301f890A24827K97067H2089J11735
31404A93824M09687k69819J25364A90477R1574P650b08176B91706h7682l64510
31394d52192C78222B6104M4516R7015m9003c3521B1827O8137L18163f39286J43292
31383d95994A8545g54342L24624i9600A60033L1372Q736n2364P0235b83215k02417
31372d85632o50143B34826I6892a96790r029D7532N22192k74973l1025m3847F6941
31360d69105C74136Q6457A27103P5949M35551k58054L58259j08417L25455D04207
31349a37077l19884F58393j55402j45618l6850J68772I4564d84331b08182n662
31339b13844K6300j38939p841A59169b77197a22783A28536l6363B4561O68820
31329F93381A50405c46713A28519a54385L2653A97272a92222k2575C3267J21042
31319A54309j5756J08728J17841j37570a78282B11736K01703A78260a55174N0163
31309a05011C11321j50164P357M13640j60853A16074d2060B0777J97386l4010
31299A84153F356K68423L31291A33436N45992E4043c96382A87124M39764b84969
31288D88539c41932h7466E7577J96305L99674k00271c64898B576a1823k4821j75206
31277b11850A36331c22636J08357B64962o5053r1749c01734A07120Q58823H8811
31266c28449j28416H676L11970L6684R6631j77706J22339A71925J33874K9600
31256C35399b06484j92178P1682J58884l09432a483j12961j52434j17021H3801
31245A61790K24144A41729a66732C22450j03085c68413J79528B41911N8375b75638
31234C026M26741A46059a58917G6097J59899I9765b67977F971O182a27095D66236
31222C89227K12688j45343j24935H9586b87722c4014A52475b23379C87879O4751
31212D52630A43752b52652f7763m45144a4380j0812G3348J59596b48294A04733
31201A23435A9736d96006a57692A42050J07231a30134Q61k94987G1931K20799
31191B92730J06830K63244B8324J12489J57900K5042j18793n003P7928K972m1850
31180B39009i6655l11641g9154m55792i0758B72428c8727j15602j20802a00357
31169D86999b63152D913N4701h145A60417a72048B92995a42656a7682k96236i292
31157b88168J37013A23107e8161A73809e4847D22956c06016e1660D4935P4487
31147A19422J85270j6198M28968b94922h7377C36384L64343l17418J91909O6455
31137F41673J69878k87795k8747e3976C0520d40013A13108J30229K87131A78984
31126B20162L33107d66227a78241I9214L21882e94401J58608J95716A06231E1223
31115d2204B61111L29284A35781E6898R196b18849a03040d6600k70638A03165
31104A05106c09074k4927o9764J02953k00984a32162k7932k95883J28629A37160
31093d0894B15627N36218C54878A19683b21530H21993r744C75257O05826A47805
31082A81974L77295k01767c45664D2338h7449H9307e1207B81273k7816K64405
31072E17862B22822b73906k06537D6024g1284j32829a6232j04755m03880L6219
31062d88648l1451K15238A18529j9659A8451J05265a81617K9312B56946c42223
31051D263O41912d5102l08074R7316A30152h6833C50390j36986d46289g1985A27153
31039c39422k21990B14729Q0495F1028K06709E035J08706C716b51134B20426l9799
31028A80627d07244A38716a00301o7729m1059d0254o47574L30016J12244L3134
31018b12434A25564j6722b33820k13666J51886A92307b4523m26231h2949C44634
31007H3460G411a01810A65041K62358b02399i8940k30350f260A38075J71566d67124
30995A24087h8748D76976h1023C63400c07811j82100k34553c26969H07051B9263
30984c5378g406G73a98784k99201j01734J49736L6494i8601E3615A5171b47663
30972b75290h0055A30876N08691k29469j86139J69010f3161F28101c8509H5195
30961c73905C5731a02103a0261j75660j14029L292k8190l7250H0482Q0019M26530
30950E87031k28769J63909C3828N9434p216f1054B30641b81209G7957L19650A28032
30938b87619h7564o6196l3757A17475b53162l02724b04524O0700g0811E64892
30927D51293Q506A01428N3399K85377L0349D7146a46301B11878c69134j67271
30917e36405K46167A5169f2044F1402k6633b40377a13273j67527a29959j09217
30907b39176A69732K14480P4178N9675k14093Q2164I3064K06380f7927p9364K1423
30896a25868B55559J8109J11018j06681b28641e560j79805E8858L07276M42686
30886H08820B06164L52367c1629C15305K52761f6246A92302L74098I0730q837
30876H1893A2884R690k818L98573b85768C93581k3748d3967B05071a53636B93257
30864h223k21436O6995n7739d3056k9916o03093A56524d9452k6921k04713a16632
30852h6326B87230j32408P4504N34084c9617D41049d69111H2635d55877a56978
30841B68814J541d25593a423l06196g6781c097F4616J61818b66230a692B99975
30829C5600b20585l12417J75790A15236j9855b66690l8434k42121B03387a58675
30818f68371A93011r4806b14563A36169K12780L60939C32481M49054A18279c7350
30807C90123A37456J51848J76644a60726d036G143b46009j13888a65943f8223
30796f5408b0856C92559L13435k22466B0495N07006G8529L8804b25071k6658l06831
30785e58560m64756h9096C83246A2191h1091k24247j19272f4428K8373C25365
30774B09417P734j2021g0274A34795K23325d71616k85654a6733C93597a37553
30763h1471m9262j2770n52475L41409B33621J86512a30752C28552b66613J30060
30753a36553H2449a21341A79649R2491H3766Q48191C50629i2941j56305B55090
30742A63964m1201K05059A303d5741B60601N37365C66845i2808F9106c89579H7275
30730D51266J8185A81400J13560d90141A64644J60999c34895l15284J00997A74279
30719A0612M00704A66288J38380j13602L38687a53469A33327K56094J156A68452
30708B28206I2855c7554j55942m7134b6052j33062A79142N51411B47830K9989
30698B77819g1725j54910G3418a08898q830a2995C14662G9562A15b67664F9970
30686B09356d91399i2324B42655J00063a42471l7841B08016m3642L04041K58719
30676G27134j43628k42730m7767b32542n5482G2215L4949O169L26860d30726j64334
30665e95060a40730j39607O2481l7507m28160B25785K68600D8081a23157j28660
30655b51817O9272l75589C56305D0546K41627K59032J0844c22207r1381C47537
30644c2577J3693C98657O69320C99592A74079M86798B78602A24030c48758k31706
30634e80464b83844A95865a99242n4544k18417b27682B62726a96160C6790J46735
30624A83525K22425b84600D39090J14561A18229r22e5039A09136c48269g4909
30613a64305c7141K101E3695c42275q1342g3942k36665b0111F80568A31397J68798
30602C00195a19733B19305L03397J85718c37023F1349d09410B42644b21235C48215
30591A04582M82003j46957H6724e0391j26999G1006P89117N5087F4517B7398b15888
30579C99782J22587N08833d12129J44947A48180a219C16365A9862c48472C58814
30568i1092A96007L3765J44160a37982d1562D3810f3220E56799b42619r2894I4104
30556D822R453e1316C95148A45052e3470q8518n7462m25111L8459h0712n80633
30545f61345F6699d2256A41305a62195F52717k28144j92489H0235K51610G5295
30534c04274k64943l161K82790k66635F7572b51308f6035j38942g6956j290E9988
30522A08706l9184A9696a55654N0688C53514j0432B8541K3254i3828C60706G1221
30510a9969m0906F36785l17297a30931C09099a26563D84421A61665J35372j15153
30500A81884N43159l57596A61560B0449c2597C06367a11992j46548l23806c0035
30489a59203j54942A00040J82574p3329E9493K94471j11839a34901j7070H2226
30478a63744B12935l5519J05941a1627F6810R6422L41720A09895E1329e69071
30467b26828A19181b44718j45379g3605b2728j78600J5106G98240m6063A58561
30456B95062h2489A12202b15973E83365A47740L86960j65018r4735k9486b86768
30445D98246q2437j88956J27615g24870K69285a45889o6339A08843K721J8748
30435A30312J97492j36579K92253a22295k88632a49077m494K7794m92930g5445
30424c07521j68880C09146k3320d34449C64684a01906k08705A97563j146d53292
30413d5059k0867A50199N4354c48273C41096D2553M45018J56436d0177C4056P1512
30402A05568f9392I494d684k34749C05290c45376J38723O7892J705j62930R752
30391b90234J45000e0815j9785G3148b54499C34867q5181d95601A75334j6989
30381A58345R792J75557f9701k65485A49474K8758h4287B32133M7803h5911j50921
30370b36832a13684j29290I2382L40996b33783J15263k108H5347C9508J88605
30360B28113l6101K40435J70054d2938k64886A88319q4745g4387j73830a08328
30349A27445b42672A8332K15476I9214o685p136a22170A98928B7738J4583O37560
30338F79881a94187n9529J16318D62657j99322J47638H2473a70505m67057a11271
30327D94981k32141A23820B3936g34511J66978K24436k14247O2446a4796A25513
30316D08237F0871a10137c1787j68389k05736C97684a7656j03772B63999K0610
30306B84609h9765n4113B53092b7146A97010J8415q5210a28081j61257F47534
30295F1337J26140d0129j52253k321f6876C09683G9234N2220K8135f5402c807
30283a52674B20074c203B24675K0019J53171A71363n9060a19045m63736K03103
30273c79678j23306A96425l709F3867K13999G3707K85286A22070K06040O0663
30263C88773n3596c11953K4981A70042a11057B31389a26246N0067B29450f21138
30252A1491M75817k0977k28734b48648I9656l3934K80214A43674b48657l19284
30242e67941A76730j7128M98766c73296H9660B0870J45912n2114M00579m4661
30232D70586j99958p0213H9680N0767k9472M79851f1599C28614J3180A69884M4227
30221B14111o3224c26631l58713P0793K74070l63483c05685J01981A18297L13291
30211D31588H9321c5882k9003F959b70022a01254B1741K27881b7580C21434K56310
30200E77744j09657Q5583j99324A23732L30681i1995k98232D84691a15841B63111
30189b22786i4010A7147M2678K2142J23997J98887d76770J43451i2773m46322
30179e39095A50286L12129d9167A5865c18510C7461h5949j69971q2280A62930
30168b72444a01201k55641n50722a54002m43550J73386a26412k25451J00489j79883
[...]
3124B62418K19373k12757O32657A89624N7981b27030O9956C91430J93104B91425
3113B32286p6777Q4395L59840A93116A2922K42029J22093R7896A88832J12372
3103C01204c5500r1311k59143j21405i4076D34637j52431Q7582L4444d2946B21663
3091a2636F94895N2385k18094k38315N52471k46287e8735D38664E7251N86675
3081F43926j43758J42253p9937j0125o9456C3890L87746j44796J57908j34162
3071C00586j07496F7526K24587a66516C80989j06059l1833c75264P8686a1636
3060H46641k31278k50246p6956K93390C6170J4413g2566j27349f159C11480O10156
3049I21636l39479k80216j02105C012L68841Q5184J29817k64393N01524L3422
3039H57407D09009j98424K2629q718j10870K43576i8985F5811K50273l6746M8476
3028C27814L9607A74578K88643b95981a6013B28116G721K91699J11278K45814
3018F56512B31463f5495A73881K43587M22462C29503M14200k2205L42428D09527
3007F03477p9809k57062L28599a74612D44033J14230k30507A60945d2891E81516
2996F42044j90727A0560M47409j82120j34945O83973C62550C5922K92311A62103
2985A81627m9467J71691A1683Q05468B80797j1930J33779A76725c12004J11420
2975b00584B39113R8525L4434A53266a31683F6883a00095D22149K1868j20716
2965C23301K39419j28536F7621K25204A5063b69044C63024J43895A29584B1140
2954b1915E73280L8714J5984k26580A71659a01245A16460a0450I2215K24870A16328
2942E74031b9839C12593O42512l52520B96790E4220K26888K78349a08617r5320
2932b03937B40522n6642J8104Q0421J16491J05072a18883B77880K49225P7822
2922F04927A04138D7411h652k04703j65602a77214E01709b43421e2147j26902
2912a79049B07756N96082k92636K24875B84031L8489j15194d31475f3576F577
2901f1456l13317l3916C2904J96054N20229k04464K49752p4363j39399p767c59953
2889a7743B97214M00434K07730C94257j30894O7411j14328G8224a34308C32442
2878D72449M7921h0540C64382J57286L01896K37898B44638o0115P8172M38539
2868G01234A74777A8408M89776L7318J53353A38296L11001B03304O26111p0025
2858G59390l12265j16177H2888M00427R0629F6706E656a68487E0891j1507f96639
2846f4462L0355C70416K1908q86L813J85152M3774G5042K35213P5029m7540M66471
2834H04215l46894J61247B53404J83531j9489J64963Q8696B77135O23548h0371
2823f66257K77324j8791D15041K99760C17535j9470J80706A81903K39386K54972
2813F76261C07393L68804k80415f4638m6034B08412I5953Q29670k79413J1768
2803F57978a28950C96785J83690A633Q3804J43120M450I571a57193p74120J88138
2792g43175M9031a954A07213J83864A11201k3359N29097j65926A8228L38787P23658
2781A080673l50555K18720B88590D5379P7733P82927l27368A56710K45463M09300
2771H11473d3346j50811D26800j65211D9234M18K27237N45053N43505n64608A98981
2759B53714C7260L95830a0656A40972K42669K94644k91043a46726D6511K16176
2749B62687N29705l89562j06431A04105R0681b32165N7922F72122l10546A10009
2738B90983J0738J35298j60951F2577g3089E79751A49625M4581f2981H667P7110
2727H5777K20771d4849B06640D1217L88800j50462N5826b00365F26742L37456
2717I64198C50150b20535d7965F25508B79352F6380a33581d8007o7142p2879B66471
2705B05165h9323l18614D7572a75303B81169D3964J84335K83273L5043L27944
2695H74559R2124m27153K64808A87996L26403j74934A15295a1065k297G36559
2684C84858o8385a36264O89D7155a40604c1184j92127E30332A29638M02250N0472
2673E82360I3004A7159Q6766O4499L89534J15292b29951R6252B76156q3882J12047
2662C04321L70896j61549J67936J48424a4632B38608L26144l1822M1312J1051
2652E85293K30434A86622O91677C97260J88604K96328C33244K75021k11565J21064
2642E17764A35389m6953J30068N7686L41133k50139J06477a24767C6744K21054
2632B57798L83034o6182B06352a97538B30691N95708j10849k54446A04267A7404
2621C55268j71315M40546j86888Q5543A66206J38077K8899J5017K36463B55323
2610H273M01701M48669J43679k82729p3115B6407J89488A00008J017941m71174
2600F46775K25009k33063r9708j02692A73439c78135g8189B42788K32534j078
2590D74244A40166a44568B52674e1070D69399M7588e5426C2846K59922J17080
2580D09848R4322O6562K64991L853m16202J18232A32279a52028A66041B1882R5782
2569A17664K44718f961F71491C06636L46294B23540d09490D22386J45969r8171
2559D70184A33886L12320P7459k35103J84174m1548H8342L59541B13391j5997
2549A97394L26662j00812A98024J87200A12008M26792B46121L76375L53879m44037
2539E32338M32389D58820J21804k08384F8255N51458k88843M50684b45866G8412
2528C35101N4104a59263E4942f28845F0475Q5030L45172B05315P06896A81682
2517B6360J70967L24386F7147b60166n4883M3054E08515j63902j868a3472A93145
2505F02148k10354o5100K27852F5105M31742k22910F751J39747O6088K1000O9479
2494C03065l9528J40331J83093O926j12219N8694j10348O1779K13719J74756l51499
2483E28769A4933K30445Q40244D75811j93426K88978K01071j96803K64238Q5159
2473I25028B99429j45057O1217L13012B46970l0041F4185e13476F1687N26814
2463E88501j65599j52141J05327O9101A43537J54099K83798A53909M34835k60152
2453C28592B4315K39236M7222A05420M51695A4383a74393D44583k2423j42914
2443B79246L46038k25630j03768J75474b05621K421k5047A57427c99081m3440
2433d42521d9655E04440H1900N133c28840R2161O2863B12873N3940K11155A83796
2421A80856J95892A36101K01185J19056H8581L07089O54272A74343M9903F6001
2410c21201B10574a95311k98957R3725J38084m06230l0512a55543E07078G9728
2399a38413C21412O7856M3770j38311q570j6865j00403L76276O6637k61790m522
2388C45490N66146n5667k12014j53479a64555m0073R0410G72311L80093k85746
2378H66658l35707E7505a53158d6728k59637J48605E3154j9825J65699Q1058K83767
2367E63853P6161B92391A26635a71705C7243J37947O0969m9847R0481d70765A59912
2355D29149k05806O03847g1781B10535P28986D41193J46515H6703K79882j45001
2345B21584A03830J47263j00361K14956K77895J50556k19841j19601D5257O586
2335E1843b89813a34984c9822j19774A17737g2185D47546i023D87256a39222k0068
2324a59290A52087N17556M3089A72247c60649B31979K29701J01821J8897A08391
2313A01830M04457P7343k45110L22250j00404J89941Q0350l66672j78781Q44204
2303A129408j70331m19629B19595l5759G0252b7869B61222R633K96465i9688E0791
2291c5844B59947K28647K32927q98A48987K50432A71928a52370E65252m6151j71478
2280C47623j20888K93147H9622M39367M04028m52697M2037l2045a2161j66914
2270a79075J0938D58165c81125A12778D7528J47329J09178d40849n65112C29797
2259A8152P54614Q7952k36838L28343C92027j83815O17281B92281O10253J68565
2249A071099D39104L76844k45587B84826K04880J49627j14424A97246K86889A79425
2238C41356l2076a32765E69825c34787D13063q0885c10123B98515K57168K61138
2228H16821l16116A6130b76345C91192a81278k93426g2401j81234j3787m88218
2218g55640J35401b99017m8197B54761J28951D9691N21779a5141A13228b65670
2207B21848P95459m77503k60536k1957N23061k75219A35777c96667i9706A35326
2196D06705K31271A89963J93085J18478K07257J11996B18629R466a09553C48759
2185f12159C69682m5788A50472N30048B54974o9250J64417j50006L83186j54047
2175D29274a66661B51288H2999K50020a30446q2434B96894M86816p0929l43541
2165C69240a07704M164B5851h6815j75751B10086j9789R5735K21502O69809B08734
2153I6a80145A65699l115J53992a5344B71681A28105d66092g7934C74208d3198
2141a3082l08108J14225D27141j31636I8067m1581c6423J7651A89107N62062k60393
2130D90776R4048A36824N47147C05600c43041j30518b24911l27860b11818o4772
2120b76590C74901J07404L24339C93564j24999J01795a33126r924M4928E3752
2109F58178B28762c3161j04256G72582k65018B29121J87528N8606K31787k21612
2099D85430M36497C41848L4213q2635m5516L39093B58160N8148J28287c92629
2088A13438M02442I2789J62714b00273A13649h2725k61544q3023J76152C7713
2077a60090k54723J80849O0778D72562j36976D3354P1705K16409K68062A82296
2066C11306J74173K33809K81141p4755J8163D68491B08407a07610A51986K73059
2056D25045n0016a06683c7900A06283c50532C94659J680P8331A37402L42734C0126
2044D26900A08677b90839a1138C15564D2329M10489K05003k35298p6989R0558
2034D36092k11098K6603a81677F3737M5039B3856J91731K78806A74647K31754
2024D06401H9418L9590d48456Q0341a33942B88142K41747m0176j25344J43424
2014E07793b9365A80208N31722I5086d57792H9292c0228D80656j6241l1876j9102
2003D13437j52148p2711M06922m4015C6096c42788C12767J09414B07827L00657
1993E08484j15744n9594R7801j88353A18281L29583K00144a2376m1826A8042L41381
1982C59423Q979K34949k49618I2811K66238F5439M46489b3884B66917h05202A2733
1970A51436M14591p2407J30208l09283C5278j5577R0957J07935m6877a73146G9821
1958E501L49553d4320k30853C22329b60393B26910K78565j24847k7143c5623G85625
1946B57709L49949A87602b2311D54281j75007J72455A79524K58837a48723j00255
1936b48978k21130b16940i1552B10001M68424B23192a98032j97728H7947e3636
1925g8231j9885C08241C9167f80053G37163B7092J61889J4781R6716J71375L39882
1914H11735B87698a70972j8492D31384a32247A0879N12549B33996J87145L82631
1904H03772j27348j11511A69650L02192c7606A49998L96356B48920L1805k6215
1894B54510e6036F84725Q4247a81201B53798M54906A83000c50567D36632k5490
1884D11142h5099a1807F4496J69333D2196N58607B61911O691N70270m02916G6344
1872a55322C05802a9174B14723K63873M93207B11528q1643J33432j20820m2449
1862A00048b5149B89528i5301E93508k76700L59210A96065L25746l3599b434C60542
1850a38404B1350K30225m2547b1840G67675a04943D09265q585a84171I8630C97
1838a38266C81949J44364k09258a28187C21442a7355A63457R59068B34675e6650
1827C59376A33499M70244A44021L04543A6974P23704L39096k37373k66108B60011
1816D98934A15174q084a4885k70330B78574L4494m4045J22222E7421K86979K93811
1805F38211J69212n2908C75206B1792b54909D63880a78768A88516P05360j26437
1795G67439k15150K08187l63538P3235r9423j9484F7383L31279j49170B7188b19778
1783A5904Q13252A96347O9871J85236J24711E6507M4777Q67246k51759M25099
1773A141870E15205A89890J00864K8926o0570g34907b67980a31505G95039p4380
1763G20659j62577N27474E25433A76882n4842L09433K50751J44807B30081K75520
1753E05601J48864B62716M31460c60844a20629A33885L62334k26104a066C64370
1742C38829j13351b02598n200C33582J23407A37243J05303K15098M2084R004G5080
1730b99347B78654J98006A12038C0768M94254k48794L17214B52764L08195J57124
1720G18083C09809J59397E7123R1576c00723J44244G3379J05437R3327A19944
1709a57346C7326N8864J48629m491F4929Q3762a93418J2903A95978N5037G7303
1697A29997m7462c7356j57269i1660j86138J9911a27117A74712k0652L74229f6534
1685E06010n689l0195N9621j65588J18776b01890K2754j62871n921D03305A19138
1673C90159o2526K59348J9709A97705a69526h2902B13198q263d46709P8749a54576
1661B70950j29608g1964B79327k860a10902j99565e8751B93392K10670p1231q4570
1650C48261F6767Q591J92771b48169l2985B01385J63129A80428m4484L29549J39187
1639F04680j62467R390A76328c42842H800a12689l02405R8410e3929B62871O50757
1628I13628l93210O2213B27191G1602Q1477r459B7372C508L81248r542c6732k3081
1616e9813I242J55811K7667K53887k23010r9745Q7189J77366J77096K07155C17843
1604C64947j09253L42483N7842a58357k15525g9262K8370E78886L3360j52624
1594D59622B25847H8311Q8879q4496M31337A15565d05703A83051J79496c3986
1583A55666b5971m30181C43753J71100H761L22334j07061J02157J72247j08715
1573C89723R4864o5212M60150N02174o85600M57075J37792n56737n0503B75494
1562B38649b46644R8852B90313L63059Q9991Q115j65234L75516J8812l26336k16117
1551D38119L59465A14968O14276d16309J86425C75113a9461A09476c19573B05659
1540F76864A78489J77710C9231K45807J45204J419M00783B15676Q5475b26601
1529D92425A68717M36704j60162J27636k79969O80752k55119k26376A51008B60
1518I5414l5757N20283l0014j66975a76383d7079E23386B14817O22447D06574
1507D94636h7879J9898a0961C63801a19235l92960i8800m0101e9843l90630A91823
1495E88495k67417P9234J94347B6398R5186k0996Q1781H5661J00493b05168L530
1484b01638D16448L1435r5735j71248b3670A39872l0405L18798B03052M75316
1474F78368C32778K4590M66081r0791j6446b6957G7210O43715l33343K08923d5860
1462h9377A23516K30555M90851l34447J38505B96416P30335D15043A8791J08674
1452A27465a05982F38687P440j4138j57365g8277A46772M30434r1530K00115B60982
1440C28613M182C6815d15436J5023J34356L4011Q6279D88329o390A62750K00514
1429C63264N77111k71659B17293J27269l3365A55538b3108m22140B25286e1762
1418a58385A63609a48955e1743E36097L70683j13114l78282H9855J23469K03216
1408D16540b68518B52234D5853P11053l29785A52688j4164r110n0081J33802e2221
1396E7743L29862K09857J01780J42407B83470M53463j42302j17814M26823k46031
1386F57609r4890L70808l37629p7991B45656j01940L18089G9811d15611D41175
1375H63221l77149j33798L01027j94281m1269d1871m70718d8633A14201K05520
1365C19721c15217C8808J01842K33795M56337j63665A76985n8526L60967d0482
1354A39024K54949p5878O62600D31007h5881C37701M2279c01351C2495a86879
1343A20048K53015H4154R5832K13742j51272n8370j0676O55530j33374M6410a84242
1331b15786B18903J9971J72998J25013A79325K94837k12640H5999B661L70195
1321C72856M72326B2166a009k49530A39312N58743A88478l1463A0429N1448M93697
1310E55574k03814A05650j6576L29384J44215N6281k84388O1747E2230O2897N87591
1299G02718A42929J62186K35148B4137j966N58459b98386J19382F8653b61441
1288A11162M96703B84832h2208k65267A14157J30524f2906k11078C44747P3958
1278D18705M78864E0190N56396k82781P6123O50266j81492C85189O5342J33527
1268E84058j73729j36388J86458J74818j60075c1366j57353E88176B46763a50375
1257b00413g036D38998A90928L5272Q9457q2655J07803l5913L69982k32355f906
1245b81807A6013a30281j24124j23897A2984O41108K17363B53357C8562K26332
1235B64894O2954O4260L85621l63055J42014k5555j90562M92269K50097e752G63851
1223A242196k49290m47744K59278q6634J97459D39322L18082l2378j44919J01854
1213F81961J53621N7895j20955B11718M8226K92937c26101B02943J38331J97316
1203E38590J22064E3055c39910C24061K5749L8882F887a9760E65715j63060n8418
1192C44237P5133j85827P8393j3040L00219L7094h4600A64577J69550L95407l03301
1181D26233A56847K38789j92728K42908C1737L27316J40084D8319e09268E6588
1170G78118l71271k00271a99244A23436J94738j34854K98999Q2017B79398L84988
1160F64386O6075J30336j33947N79k40237n2014p6537j43942J98547A9591J11196
1149A30787b53483h776j7429C90195O9150D8740K29912a523F47273O64136n71853
1138G39556l15486b71918F10556C4590K8760a71002J2041B03645J74118d5405
1127G28186O85478m60116C44423a55292B89265c0302o1036C65218j73699a6455
1116C78264b44637A05729a2229o14802J62443B87504m226P4734n6211e92864A42585
1104h3269F47674p1804R69C4726b56111A13524Q6501k5085M93723O6301E9898
1092D58020O1696A84591G2411J46683b8025C24852J98818O67871k75871k23934
1082F91736j8786A44791a09564F23385P3600B2177c02871A46946L50175o082i6851
1070a07667C2331K2073e7509F32601B83549K65553j37064h196j78726j31178J39505
1059a78595B58873O5672b29917B16052M90474J7726k0968k47738B25850K0980
1049B46830e6171B7208L02731L69756A93222D3209a79397O2737l04609b8903B52365
1037E29412K3498k52434a0612B68908D4348J02451K81502m0082O67093C16913
1026G31464A02159R3293K04906A24796J43390a54741N0771F5068a16201A81518
1015I5086g960A58605d3321B26193O1787L51618J3543k27866j69469L28657j33685
1004D50778r6454J43749J9098K01025j98335M2J61383g4991A27054b20555B26546
992E73469B78031L56486j37327Q93A54540d29814A89235g468j81892l11957C64450
980A73438J43185L30988k57415L22908C07892c4140B39909f0528l18956a73076
969E17447c60011k69599A28237L30790j09357E8603B0166N5790b26498A13424
958A75462J97328A72022N48711l55150Q4222g2250a1220j96978g2427k21348m35619
947g29394B48444K8074p5915g3423n34144K61208k97209L20156B86621j23238
937A63383P9774K87046j01433b6079C15983N4801M85937l71383B17238N24240
927G41478O79645j04278m02817j25997H5301N20245j2158L74078l6867p2751k44866
916F12982l04690A40829K8967M57975H1008c1809E6183J69891e0754A92229L44363
905E36592J25656j96448J27506A90431m1766L82222E7572P99075E1532f2233E19990
893D57868c3201j51189C36394J06612L32201A74752d03876I8860k4619L79964
883D54205A8308N91584L27518j01116j02935a39799H3603M31550J10306A72353
872E6040a47194j24762j77088a68088C65181k95h1086r9750A23380h5376F8940
860a76865K3103B48368r9613a2564A462f1622A22644J0367L72258j52383L78872
849G31758r0092k1476B30174d9397B60021K20754g8690C39273L79975F5449L44510
838D09959O8271N52189L667C93821M0400L45433l79878O88604l0150A32448K07075
827C39523J02352J64663f2394A52198j3580Q8562J78483A46054i4746D60463D3695
815c37771A06325O10949B20640p4766M28338k0468b43327J14133k96121D01396
804D13099N06466I4341J03212K01668M4762A90254E3184M59021L3704k3581l3321
793D89007K79328L8196A93342Q6084A27827f7449j59551I53614C75925M88782
783H64707l29302r0952e2864K4847j66588B00026K63122I5370O92368l80384L32366
772G39720j21467J88047j68459B96949P85967j71793D53621J31498L35617J91301
762A112037m53227B44889M66025J82882m22114G5452L07456j87629j0644C6791
751E24498A86188R3482J28238L96868l30057M3936k13613j15052b58607A47654
740b07366B09042J15783j18943L38831k29769J9029J0974b26r947n7880A23870
728E78940j55141m3834P87125K30377D25728A49880p3270M56912O5667J1973k43997
717C67165i6416E44079A43729P5086b30368C56510A21782e06215B7467g5209B19326
705f4224J5879B45626l1016a74971C89223j80670j8519L19133A27074M92195j21915
694D97354D1751L66276c14636C00829I2609P06205q6476C13807J31447j96020
684B49234J90200A36830a68664B90982L22302A95752N19218k46202K62478l10730
674D20516A98356D9821c14039c2774D35103b16498C8777L12505e25889b60933
663c77016R5494H333J31234f201F46648k11980j30766l3842R2961J37555e2826
651H71411C23039J98663G6212N11940A64834f2964l56708j47849Q3030B0896N8446
640G9342A7425f87414B7928H64M60181K1373k34080d9123C2689M47916O4549j65228
628C79926A37277L67993M2130o7669L97255j38654K02939j71717k17969j34897
618D16688K01421j5672B85657N3300K94899k15574J15411J64909O1427k82942
608D77087L1628J77049A04039e03883B74845j29601J16203j14016M86794B75125
597e23228K59142a03205C05204A44873J25863m7502K56701n0754j91262K0043
587B57962H1078J41171a20007E17749l111G2091c59143j0297J81953C51837b13547
575c77160J5365B1618J80518G0367L20192M06314j33791H3222L01469H9660L59386
564D49046j76043Q9982H5611J52039J6650M86909C37445G6118b303r3046m54320
553e49669b67267P0042d8707l88569a50639A36771b39019E37398B5072L4830R5984
542A55886J90704k3046c25119C4536h2853D37261C7848L33168G0719k31b26533
530a1121B07609r1184R9410P1835L37235M16265D01578c6407D08600M77938k92802
519E93736B50597a19086G30317F8560b2266C13116J31856q6455p8481J60730l5255
508D05511k2706I0884K33875K26499A66077b66571B24366K47274N59502E11049
497G5736n482P95115j53264A24504J81959b9897A86683N5085b08155O8200B52738
485E18427M6080A98849R0657L14782k05504J18095k13212g186D82862q198J13653
474E88317N7376l03959Q5090K64354Q2759A6953c26773J39254F11458J68475l75021
463D04912A18172a38724E09639L74353A02730b5339j59031A33265Q9493N3920
453B76678R415E1000P7947K87547D3949L81184b80390L5536M7471b4589H534K43876
441B52410L8667j45534c59490A48635a61167F25196B486J9332d22777a50985A005242
429C71654A34253K23031J33063N67413n01632J00016E9222K22881L88061J34703
419H04867j42464J25104j96439j50297J4056M05778p0962O355A68474p8845O12978
408G02607N80266E51868R2146P6627l8569R3089k19016B57965j22741c3701E85424
396D41211q8264F8795J88140J76411j6210K03769J61629k70066o6119B12733K68729
385D81462j35168P26286l79613L49972l6986l19805l26050i3276n9219D01432
374B79931M06527j57812k17134H6153K20500l7694h2611F19240k76059F8807L07069
363C75876K7454b56081a07912B97742J34493a84292d4370o1006F1292M0536K78333
352C80161m4209J85162A32445e6065C95023L26160L32916l29673l53571K33678
342F04533A26659L19100j79879M12323L02912C15785A40644B107N1649K32223
332B85979K26377j05123A83079P2069J92928K10354B97274J35815r2059b85492
321B10058O8175p7767M76217k233b8038j00245C63415M0276A46598K25733N2502
310D24833A54345D632d37873j98283a43780C87239Q0137a91940e052A81116K97105
299D78221J2200a20218A38121L69409H3758b32319j20543g9806J1520j77337C4018
287E9906b74089B5592Q2790K06022A06641a71512B83220K61780j22236H1640f3832
275B17072j08436L44534K17537K37640k54915A31917K80310K64722B15922O4448
265B80370J40392N05980j34706l62727R9390j67171E7837c31819A69111L0400
255A99511A2322K29435N1806k1675L06582j85499A09842J08762N87769L31256
245A137629n45705A20677L29528c1032B01578J74477B6497L26889O77652l00231
235G30807R2445Q664l64311I8502l4626J38818K24352p0391b2567D7614L0165
224G7779L89068b79086B23433q0322a19427B82177N1380a36897D18707A4930J66789
213A81719J70279b9433A0294a5210C783O28517K456j36164G6642a06493o95L3298
201g3890C8319L25449M3363j10520P0739L04086B61375b66682g9769C3085O68584
190G01669l25828p9179J38652j45215L06552B08010j01245h9232B06447M8244
180B54691J21529K03954n6768J14926B72883P743L75077R786j25711A23570M69424
169E92994j76734J5674J59652A24148D396J6248M70692I4102L59302j23304e0716
157D32233A16113B9836N51275j24716J96391f8329C29376j54736D0102L8728K10303
146B89133J05270n1346E9296M3567L83300j22023J68921k47927Q7726m2985A37402
134B20406R1243j46158J51313o6906K65295j38709A36438l698P8385L91446J10390
123G12961B45009k3927L21217K74173B89620K37347I5514N79051K05330k28459
113F51436k20917O6501M3778j2202q6590L00219R3712q7849n9714k74779Q5107
102D98702Q9298m6908m3903K2891B47660K07492J82356j21008l3335K03641j84642
91E02164O9499B2601P8968L26332O8424H6889J61597K68631A57158M54113j07550
80E03721j49343J06909p9407A30686O56143l74291j6547J05225P3547j73340l1944
69C69479d9980o5449A29605J44631L76589K40954D07385e0949k50051C8276O14361
58F52637k3320l01552j17128K94474n4960K51980k0594B67565J86426K27752C03437
46F0641M5652P7657L27986J57332m1999j73301j47112l5617K18121A26557a91108
34E17184j16897K3195m1895J71449J30042j48548A72282J42455r2304A11034J87814
23B98848K71841b401B41637J39603N43998j24582j54401O4537J10240k16642J32378
12G36768k66269q1191J31415j22138J40828m2305n4737J0382l7468K50439j8536
1F47188B97435
##END NTUPLES=NMR SPECTRUM
##END=
